101
/cluster/projects/nn2506k/marcof/RuC_BondLength/evolutionary_desing/RUN28052021044948/Gen012/M00000101_I_DFT.out	Energy: -1076507.3103650
Ru         0.15640        0.55842        0.03555
C         -0.33263       -0.01219        1.68869
C          2.03739        0.05160       -0.15255
Cl        -0.89653       -1.18228       -1.26991
Cl         0.44169        2.90967        0.50969
H          0.25289       -0.54154        2.44307
H         -1.38832        0.21618        1.95239
N          2.72097        0.31995       -1.33444
N          2.93758       -0.55913        0.71642
C          4.12047       -0.16726       -1.31609
C          2.20215        0.92338       -2.55423
C          4.34543       -0.67686        0.13688
H          4.80619        0.64761       -1.57919
H          4.25013       -0.96904       -2.05749
C          4.96783       -2.10463        0.17307
C          5.43665        0.14809        0.88999
C          6.48077       -1.88094       -0.09706
H          4.50455       -2.78538       -0.55184
H          4.82727       -2.53255        1.17371
C          6.78432       -0.41352        0.36295
H          7.09133       -2.61725        0.44529
H          6.71192       -2.00419       -1.16587
H          7.15909        0.18448       -0.48124
H          7.55847       -0.37747        1.14294
H          5.35178       -0.04484        1.96624
H          5.33167        1.22923        0.73230
C          2.30945        2.33390       -2.75395
C          1.69474        0.07910       -3.59008
C          3.04177        3.26998       -1.79784
C          1.75662        2.88254       -3.93517
C          4.40354        3.77845       -2.35752
H          2.40347        4.14106       -1.58935
H          3.20625        2.78472       -0.83070
C          5.13307        4.73073       -1.37928
H          5.05884        2.92054       -2.58878
H          4.23818        4.30081       -3.31427
C          6.48224        5.25256       -1.92185
H          5.30188        4.21125       -0.41908
H          4.47553        5.58746       -1.15044
H          7.17939        4.42413       -2.12799
H          6.96805        5.92646       -1.19843
H          6.34466        5.81326       -2.86031
C          1.15714        2.08670       -4.93395
H          1.79959        3.96474       -4.07336
C          0.50177        2.71532       -6.15646
C          1.16906        0.68548       -4.75235
C         -1.00813        3.03216       -5.94250
H          1.02262        3.64999       -6.42250
H          0.59912        2.03992       -7.02254
C         -1.67721        3.66722       -7.18457
H         -1.53739        2.10266       -5.67357
H         -1.11587        3.70983       -5.07896
C         -3.17506        3.98299       -6.97500
H         -1.56572        2.98652       -8.04745
H         -1.14301        4.59630       -7.45251
H         -3.74574        3.07026       -6.74061
H         -3.61750        4.43268       -7.87820
H         -3.32076        4.68973       -6.14254
H          0.75486        0.04321       -5.53204
C          1.75995       -1.43841       -3.52725
H          2.70967       -1.79802       -3.96107
H          0.94477       -1.88582       -4.10963
H          1.67610       -1.82234       -2.50789
C          2.65487       -1.05182        2.05388
C          2.83283       -0.19112        3.18131
C          2.21100       -2.40327        2.23755
C          3.13890        1.29611        3.07084
C          2.64267       -0.72527        4.47801
H          2.36083        1.87542        3.58969
H          3.16202        1.65111        2.03977
H          4.09970        1.54270        3.54941
C          2.25737       -2.06477        4.69527
H          2.77740       -0.06264        5.33587
C          2.09408       -2.62142        6.10390
C          2.02513       -2.87167        3.55942
C          3.39925       -3.25177        6.67327
H          1.76546       -1.82021        6.78591
H          1.30206       -3.38811        6.11236
C          3.22578       -3.81804        8.10285
H          3.73718       -4.05621        5.99810
H          4.19795       -2.49060        6.67437
C          4.51808       -4.44339        8.67354
H          2.42423       -4.57779        8.09911
H          2.88357       -3.01156        8.77530
H          4.86869       -5.27850        8.04609
H          4.35470       -4.83462        9.69016
H          5.33090       -3.70146        8.72733
H          1.66938       -3.89123        3.70898
C          1.81875       -3.31112        1.06930
C          2.35949       -4.76597        1.11282
H          0.71654       -3.35451        1.03475
H          2.11484       -2.85085        0.12182
C          1.92923       -5.59176       -0.12444
H          3.46005       -4.75619        1.18067
H          1.99935       -5.28167        2.01757
C          2.43954       -7.04944       -0.09509
H          2.29378       -5.09647       -1.04181
H          0.82769       -5.59150       -0.19589
H          3.54036       -7.08876       -0.05886
H          2.11436       -7.60159       -0.99087
H          2.05699       -7.58906        0.78628
