103
/cluster/projects/nn2506k/marcof/RuC_BondLength/evolutionary_desing/RUN28052021044948/Gen019/M00000136_I_DFT.out	Energy: -1166005.8071036
Ru         0.28884        0.72132        0.13670
C         -0.10942        0.30638        1.86014
C          2.17036        0.17353       -0.05938
Cl        -0.88007       -1.04675       -1.01482
Cl         0.42382        3.12715        0.40422
H          0.55028       -0.11864        2.62109
H         -1.15104        0.53338        2.17352
N          2.85731        0.44167       -1.24131
N          3.06810       -0.44518        0.81619
C          4.30837        0.17300       -1.10392
C          2.30074        0.96829       -2.47343
C          4.40656       -0.74833        0.13468
H          4.85307        1.11786       -0.94619
H          4.69796       -0.30277       -2.00616
C          4.58493       -2.25001       -0.25693
C          5.69388       -0.48915        0.96148
C          6.10240       -2.41091       -0.55776
H          3.94316       -2.53266       -1.09923
H          4.31193       -2.87023        0.60396
C          6.80813       -1.20647        0.15526
H          6.47361       -3.37674       -0.18413
H          6.30312       -2.39461       -1.63955
H          7.25053       -0.52510       -0.58816
H          7.62811       -1.53479        0.81089
H          5.58930       -0.95740        1.94768
H          5.88843        0.57727        1.12013
C          2.25110        2.37839       -2.70568
C          1.84667        0.08745       -3.51350
C          2.99351        3.38959       -1.83530
C          1.55052        2.87289       -3.82417
C          4.31819        3.88668       -2.48719
H          2.34616        4.25840       -1.65257
H          3.21211        2.96767       -0.84945
C          5.07462        4.90647       -1.60174
H          4.97771        3.02742       -2.69858
H          4.09624        4.34875       -3.46361
C          6.38452        5.42126       -2.23934
H          5.30146        4.44479       -0.62417
H          4.41139        5.76291       -1.38795
H          7.08739        4.59478       -2.43340
H          6.89155        6.14404       -1.58029
H          6.18936        5.92472       -3.19991
C          0.91775        2.01456       -4.76771
H          1.49460        3.95217       -3.94232
N          0.14615        2.51956       -5.82198
C          1.14995        0.61544       -4.61825
C         -0.02286        3.96917       -5.98871
C         -0.51080        1.60593       -6.76564
H          0.93769        4.47966       -6.18176
H         -0.48149        4.43112       -5.09743
H         -0.68104        4.16558       -6.84311
H         -1.14122        0.86892       -6.24040
H          0.21489        1.05266       -7.39008
H         -1.15979        2.17864       -7.43851
H          0.80316       -0.07735       -5.37881
N          2.17910       -1.33140       -3.48341
C          1.09078       -2.28388       -3.80199
C          3.41074       -1.64853       -4.24800
H          0.18904       -2.00818       -3.25084
H          1.39787       -3.29042       -3.47621
H          0.85247       -2.34712       -4.88671
H          3.75824       -2.65956       -3.98291
H          4.20849       -0.93332       -4.01510
H          3.25470       -1.62130       -5.34931
C          2.81277       -0.95214        2.15225
C          3.30988       -0.24214        3.31109
C          2.15744       -2.21164        2.34731
N          3.98532        1.01256        3.20943
C          3.16911       -0.82530        4.59426
C          3.28114        2.19068        2.66678
C          4.97625        1.37082        4.23455
H          2.53866        1.90605        1.92616
H          3.99936        2.87851        2.19181
H          2.75361        2.75212        3.46530
H          5.63837        2.14983        3.82449
H          5.59387        0.50204        4.49707
H          4.53327        1.78042        5.16770
C          2.54694       -2.08729        4.79609
H          3.51463       -0.25665        5.44952
N          2.42729       -2.64513        6.07872
C          2.02813       -2.74548        3.64765
C          2.93688       -1.92687        7.25323
C          1.69166       -3.90161        6.27383
H          2.40508       -0.97312        7.42804
H          4.01301       -1.70332        7.15647
H          2.80896       -2.54883        8.14699
H          2.14819       -4.73380        5.71084
H          0.63491       -3.81899        5.96171
H          1.70562       -4.17314        7.33594
H          1.50916       -3.69133        3.75766
C          1.50799       -2.99186        1.19900
C          1.79361       -4.51815        1.15374
H          0.41727       -2.85223        1.26958
H          1.78447       -2.55318        0.23761
C          1.14868       -5.20185       -0.07702
H          2.88162       -4.69952        1.14305
H          1.40935       -5.01003        2.06220
C          1.39151       -6.72666       -0.12659
H          1.54036       -4.73885       -0.99889
H          0.06308       -5.00319       -0.07549
H          2.46806       -6.96061       -0.16436
H          0.92024       -7.17546       -1.01558
H          0.97238       -7.22781        0.76119
