83
/cluster/projects/nn2506k/marcof/RuC_BondLength/evolutionary_desing/RUN28052021121055/Gen023/M00000169_I_DFT.out	Energy: -1146694.8238333
Ru         0.20502        0.85843       -0.07792
C         -0.33440        0.30156        1.56315
C          2.03371        0.20260       -0.27200
Cl        -1.19759       -0.58433       -1.41302
Cl         0.84052        3.14311        0.34821
H          0.10153       -0.48925        2.17558
H         -1.27676        0.75794        1.93347
N          2.67562        0.30732       -1.50789
N          2.96788       -0.24694        0.65022
C          4.22433        0.24325       -1.35103
C          1.94339        0.24174       -2.76082
C          4.31984       -0.65871       -0.01206
C          4.68148        1.73857       -1.15498
C          4.92942       -0.41773       -2.57378
C          5.56388       -0.26198        0.85044
C          4.25735       -2.22051       -0.19467
C          5.96763       -1.10914        2.08464
H          6.41955       -0.27913        0.16209
H          5.45660        0.77737        1.17129
H          6.88993       -0.67803        2.50694
H          6.18720       -2.15467        1.83606
H          5.21732       -1.10249        2.88171
C          5.47525       -3.00482       -0.75612
H          4.08141       -2.61089        0.81443
H          3.36623       -2.47757       -0.77177
H          5.36929       -4.06367       -0.46962
H          6.43943       -2.65781       -0.36207
H          5.53429       -2.97859       -1.84927
C          6.18558        2.12929       -1.16353
H          4.21293        2.28275       -1.97677
H          4.21445        2.13257       -0.24493
H          6.25307        3.20524       -1.39044
H          6.76963        1.60456       -1.93121
H          6.68850        1.97581       -0.20134
C          5.04020        0.36710       -3.90543
H          5.95271       -0.65023       -2.24620
H          4.45244       -1.37934       -2.78519
H          5.63955       -0.23178       -4.61061
H          5.53491        1.33773       -3.79276
H          4.06868        0.54802       -4.37500
C          1.42163        1.34536       -3.51549
C          1.64139       -1.04184       -3.28560
C          0.65917        1.09388       -4.68590
C          1.67279        2.82811       -3.26333
C          0.40595       -0.20032       -5.18859
H          0.25928        1.94552       -5.23533
C         -0.44365       -0.41662       -6.43276
C          0.92405       -1.28768       -4.45831
C         -1.95054       -0.61225       -6.10597
H         -0.08114       -1.30068       -6.98120
H         -0.33408        0.44385       -7.11168
H         -2.52460       -0.76653       -7.03270
H         -2.36283        0.26598       -5.58797
H         -2.10734       -1.48393       -5.45441
H          0.74820       -2.31986       -4.75872
C          0.47213        3.77482       -3.27361
O          2.83832        3.28503       -3.16118
H          0.37134        4.22978       -4.27343
H         -0.46825        3.27569       -3.01594
H          0.66481        4.58387       -2.56018
F          2.07657       -2.18011       -2.58825
C          2.76383       -0.26607        2.07558
C          2.35839       -1.41667        2.83121
C          3.04761        0.89895        2.82961
C          2.26750       -1.32982        4.24417
C          1.91701       -2.72590        2.19519
C          2.51247       -0.13579        4.96073
H          1.96344       -2.21286        4.80442
C          2.32209       -0.06224        6.46966
C          2.91556        0.99541        4.22074
C          0.90020        0.41160        6.88015
H          3.06394        0.62667        6.90362
H          2.51045       -1.05154        6.91582
H          0.12650       -0.27376        6.50297
H          0.68378        1.41421        6.48274
H          0.81330        0.45349        7.97665
H          3.13956        1.94673        4.70255
C          2.28967       -4.03769        2.89591
O          1.22592       -2.74242        1.14761
H          2.24447       -4.84941        2.15965
H          3.28482       -4.00378        3.35918
H          1.55632       -4.27136        3.68520
F          3.52082        2.03811        2.17136
