100
/cluster/projects/nn2506k/marcof/RuC_BondLength/evolutionary_desing/RUN28052021044732/Gen018/M00000128_I_DFT.out	Energy: -1133594.0717265
Ru        -0.09780       -0.00819       -0.03684
C         -0.42154       -0.64547        1.63265
C          1.82108       -0.28646       -0.35403
Cl        -1.10565       -1.83343       -1.26808
Cl        -0.10513        2.34754        0.53842
H          0.26364       -1.10846        2.34469
H         -1.47772       -0.53443        1.96179
N          2.42342        0.23061       -1.50126
N          2.80925       -0.91292        0.39753
C          3.91964        0.21981       -1.35839
C          1.73609        0.95388       -2.57165
C          4.18637       -0.96557       -0.33946
C          4.70971        0.29062       -2.66355
H          4.19252        1.13366       -0.80815
C          5.40996       -0.56068        0.54980
C          4.36902       -2.38168       -0.98029
C          5.96516       -1.52970        1.62716
H          6.22682       -0.35990       -0.16289
H          5.19078        0.40172        1.03044
C          7.31501       -1.02791        2.20127
H          5.25133       -1.63955        2.45048
H          6.11458       -2.53581        1.21182
C          7.88599       -1.94770        3.30330
H          7.18441       -0.01037        2.61105
H          8.05336       -0.93850        1.38419
H          7.19004       -2.03027        4.15335
H          8.84238       -1.56097        3.68926
H          8.06662       -2.96501        2.92046
C          5.73478       -2.75542       -1.61982
H          4.17633       -3.11206       -0.18672
H          3.58684       -2.51907       -1.73668
C          5.68193       -4.15982       -2.27436
H          6.02983       -2.02936       -2.38497
H          6.53333       -2.75684       -0.86367
C          7.02866       -4.59553       -2.89330
H          4.90255       -4.16566       -3.05551
H          5.37099       -4.90550       -1.52094
H          6.95017       -5.59313       -3.35367
H          7.82438       -4.64077       -2.13208
H          7.35463       -3.89115       -3.67554
C          5.76097        1.23623       -2.77347
N          4.38154       -0.53594       -3.70023
C          6.49877        1.32284       -3.97118
H          5.99371        1.89883       -1.93977
C          6.15651        0.47386       -5.04358
H          7.31214        2.04342       -4.06752
C          5.08979       -0.43174       -4.85631
H          6.68959        0.51254       -5.99381
H          4.78504       -1.10428       -5.66119
C          1.77557        2.38141       -2.58499
C          1.10844        0.21966       -3.62418
C          2.50706        3.17626       -1.51249
C          1.10993        3.08134       -3.63000
H          2.65194        2.59547       -0.60093
H          1.93242        4.06043       -1.21655
H          3.49011        3.52479       -1.87394
C          1.17710        4.60513       -3.67787
C          0.36887        2.36426       -4.61266
H          0.40739        5.06577       -3.03415
H          1.02893        4.99037       -4.69309
H          2.14910        4.97868       -3.33215
C         -0.45950        3.12601       -5.64418
C          0.40059        0.94050       -4.63225
H          0.14989        3.44751       -6.50726
H         -0.90934        4.02806       -5.21031
H         -1.28061        2.51687       -6.03665
C         -0.32325        0.18731       -5.74532
H         -0.17193        0.66317       -6.72441
H         -1.41107        0.15494       -5.56177
H          0.01367       -0.84902       -5.83243
C          1.20704       -1.29343       -3.71937
H          1.75699       -1.57924       -4.62838
H          0.21679       -1.76143       -3.74950
H          1.74377       -1.71655       -2.87309
C          2.62236       -1.46938        1.73113
C          2.24607       -2.83780        1.89203
C          2.82087       -0.62086        2.86569
C          1.78567       -3.68934        0.71610
C          2.19925       -3.38815        3.20703
H          1.68788       -3.10644       -0.19837
H          0.79442       -4.11616        0.92490
H          2.46355       -4.53333        0.51528
C          1.84579       -4.85851        3.40755
C          2.45374       -2.56776        4.34383
H          2.01003       -5.45216        2.50304
H          0.78558       -4.98553        3.68845
H          2.44526       -5.31179        4.20818
C          2.37220       -3.18400        5.73723
C          2.74531       -1.18197        4.17548
H          2.31728       -2.43105        6.52835
H          3.25209       -3.81596        5.94838
H          1.48762       -3.82793        5.84015
C          2.97833       -0.30550        5.40451
H          2.05698       -0.18928        5.99902
H          3.31850        0.69984        5.14475
H          3.73802       -0.74200        6.07039
C          3.04788        0.87680        2.70337
H          2.97745        1.18895        1.66201
H          4.02899        1.19152        3.09199
H          2.28264        1.44572        3.25049
