81
/cluster/projects/nn2506k/marcof/RuC_BondLength/evolutionary_desing/RUN28052021121055/Gen037/M00000242_I_DFT.out	Energy: -1239564.1088755
Ru         0.07281        0.82755       -0.03119
C         -0.46704        0.17826        1.57606
C          1.90765        0.20121       -0.24673
Cl        -1.30049       -0.56419       -1.44356
Cl         0.67618        3.09583        0.49440
H         -0.03743       -0.65279        2.13753
H         -1.41043        0.61180        1.96912
N          2.55267        0.35256       -1.47691
N          2.84738       -0.26910        0.66112
C          4.10398        0.29439       -1.32219
C          1.82249        0.31900       -2.73071
C          4.20610       -0.64870       -0.01060
C          4.55207        1.78545       -1.08238
C          4.81161       -0.32606       -2.56466
C          5.44415       -0.26313        0.86564
C          4.16196       -2.20484       -0.23932
C          5.85558       -1.13967        2.07647
H          6.30042       -0.25372        0.17822
H          5.32758        0.76667        1.21331
H          6.77597       -0.71382        2.50764
H          6.08167       -2.17678        1.80082
H          5.10853       -1.15989        2.87658
C          5.39012       -2.95705       -0.82190
H          3.99072       -2.62780        0.75726
H          3.27408       -2.45644       -0.82371
H          5.29403       -4.02534       -0.56983
H          6.34922       -2.61346       -0.41300
H          5.45291       -2.89536       -1.91331
C          6.05410        2.18425       -1.08072
H          4.08044        2.35117       -1.88761
H          4.08280        2.15072       -0.16159
H          6.11536        3.26589       -1.27968
H          6.64090        1.68325       -1.86185
H          6.55838        2.00886       -0.12309
C          4.91673        0.49855       -3.87252
H          5.83670       -0.56020       -2.24463
H          4.34269       -1.28548       -2.80316
H          5.52132       -0.07450       -4.59415
H          5.40403        1.46902       -3.73122
H          3.94530        0.68649       -4.33989
C          1.30023        1.44531       -3.45477
C          1.52583       -0.95336       -3.28673
C          0.55034        1.22619       -4.63371
C          1.53141        2.92337       -3.14549
C          0.30836       -0.05902       -5.16825
H          0.14042        2.07259       -5.18038
C          0.81087       -1.17265       -4.46558
C         -0.49579       -0.18225       -6.44375
H          0.63818       -2.19819       -4.78219
C         -0.88730       -1.56865       -6.94405
O         -0.84155        0.85392       -7.07402
H          0.00184       -2.18126       -7.16145
H         -1.48302       -2.10624       -6.18997
H         -1.47855       -1.46455       -7.86031
C          0.31888        3.85079       -3.13829
O          2.69152        3.38367       -3.01254
H          0.18981        4.29465       -4.13977
H         -0.60952        3.33782       -2.86426
H          0.51075        4.66861       -2.43482
F          1.95826       -2.10518       -2.61499
C          2.64379       -0.32703        2.08394
C          2.25976       -1.50669        2.81058
C          2.90403        0.82872        2.86216
C          2.16949       -1.45627        4.21966
C          1.83464       -2.80865        2.14133
C          2.39376       -0.26982        4.95864
H          1.88617       -2.34173        4.78361
C          2.76732        0.89433        4.25406
C          2.23193       -0.30598        6.46389
H          2.96831        1.84232        4.74767
C          2.41105        0.97881        7.26455
O          1.94958       -1.39272        7.03821
H          3.42798        1.38477        7.14517
H          1.70515        1.75646        6.93373
H          2.23717        0.76649        8.32496
C          2.21053       -4.12779        2.81947
O          1.15222       -2.80147        1.08845
H          2.15359       -4.93137        2.07540
H          3.21082       -4.10203        3.27241
H          1.48888       -4.36711        3.61764
F          3.35552        1.98846        2.22997
