93
/cluster/projects/nn2506k/marcof/RuC_BondLength/evolutionary_desing/RUN28052021121055/Gen037/M00000241_I_DFT.out	Energy: -1338176.5956681
Ru         0.08905        0.84716       -0.03802
C         -0.44504        0.23859        1.58695
C          1.92142        0.21249       -0.25742
Cl        -1.29677       -0.57211       -1.41053
Cl         0.70778        3.12305        0.43822
H         -0.01352       -0.57402        2.17346
H         -1.38797        0.68251        1.96974
N          2.55670        0.34781       -1.49428
N          2.86644       -0.24491        0.64996
C          4.11114        0.30157       -1.34681
C          1.81527        0.29195       -2.74089
C          4.22389       -0.63162       -0.02503
C          4.54810        1.79849       -1.11601
C          4.81510       -0.32603       -2.58698
C          5.46556       -0.23647        0.84135
C          4.17793       -2.19070       -0.23804
C          5.89024       -1.09400        2.06618
H          5.35178        0.79797        1.17680
H          6.31977       -0.23845        0.15028
C          7.17466       -0.52701        2.71797
H          6.08153       -2.13481        1.77251
H          5.10142       -1.12631        2.82725
H          7.02617        0.50552        3.07202
H          7.47638       -1.13713        3.58359
H          8.01690       -0.51739        2.00768
C          5.40165       -2.96285       -0.81461
H          3.28844       -2.44619       -0.81817
H          4.00766       -2.60466        0.76315
C          5.29378       -4.47850       -0.51963
H          6.34875       -2.58748       -0.40014
H          5.46979       -2.83528       -1.90128
H          4.36096       -4.89758       -0.92843
H          6.13415       -5.02748       -0.97293
H          5.30688       -4.68429        0.56292
C          6.04521        2.22945       -1.14085
H          4.09124        2.15710       -0.18631
H          4.05612        2.35912       -1.91311
C          6.16541        3.76577       -1.29820
H          6.58763        1.74879       -1.96834
H          6.57036        1.94145       -0.22121
H          5.64960        4.28942       -0.47802
H          7.22128        4.08067       -1.28754
H          5.71543        4.11001       -2.24128
C          4.90542        0.47511       -3.91507
H          4.35341       -1.29306       -2.81028
H          5.84628       -0.54470       -2.27318
C          5.74224       -0.28954       -4.96762
H          5.35410        1.46232       -3.75304
H          3.90811        0.66204       -4.32903
H          5.30436       -1.27464       -5.19708
H          5.79495        0.27823       -5.90948
H          6.77538       -0.45591       -4.62123
C          1.27936        1.40435       -3.47698
C          1.51735       -0.98988       -3.27450
C          0.51402        1.16391       -4.64172
C          1.51554        2.88811       -3.20218
C          0.26986       -0.13032       -5.15281
H          0.09357        2.00020       -5.19591
C          0.78767       -1.23038       -4.44017
C         -0.55174       -0.27684       -6.41449
H          0.61550       -2.26151       -4.73842
C         -0.94630       -1.67246       -6.88603
O         -0.90944        0.74773       -7.05701
H         -1.52853       -2.19946       -6.11416
H         -1.55183       -1.58521       -7.79469
H         -0.05855       -2.28578       -7.10712
C          0.30474        3.81763       -3.19425
O          2.67869        3.34899       -3.10071
H          0.16439        4.24660       -4.20068
H         -0.62102        3.31088       -2.90067
H          0.50671        4.64572       -2.50574
F          1.96363       -2.13021       -2.59256
C          2.66459       -0.29380        2.07314
C          2.26928       -1.46569        2.80729
C          2.93379        0.86460        2.84434
C          2.18280       -1.40560        4.21640
C          1.82642       -2.76645        2.14712
C          2.42055       -0.21758        4.94840
H          1.89203       -2.28479        4.78612
C          2.80135        0.93943        4.23615
C          2.26316       -0.24416        6.45426
H          3.00976        1.88902        4.72361
C          2.45602        1.04332        7.24742
O          1.97326       -1.32525        7.03547
H          1.75574        1.82526        6.91473
H          2.28377        0.83819        8.30951
H          3.47602        1.43983        7.12258
C          2.15276       -4.08519        2.85174
O          1.16671       -2.75840        1.07998
H          1.40179       -4.29811        3.63009
H          2.09910       -4.89569        2.11514
H          3.13969       -4.07768        3.33343
F          3.38808        2.01940        2.20473
