98
/cluster/projects/nn2506k/marcof/RuC_BondLength/evolutionary_desing/RUN28052021044732/Gen020/M00000138_I_DFT.out	Energy: -1081293.1923166
Ru        -0.05805       -0.36786       -0.29326
C         -0.41661       -0.98171        1.37836
C          1.89583       -0.32394       -0.39483
Cl        -0.36222       -2.41759       -1.54429
Cl        -0.72228        1.92724        0.11699
H          0.27992       -1.19378        2.19302
H         -1.49574       -1.13231        1.59665
N          2.53294        0.16358       -1.54069
N          2.87803       -0.80282        0.46885
C          4.03983        0.24253       -1.29405
C          1.84027        0.82403       -2.64804
C          4.24556       -0.94789       -0.28724
C          4.97251        0.34265       -2.48792
H          4.18797        1.17021       -0.71874
C          5.48417       -0.76874        0.64725
C          4.26142       -2.35172       -1.04260
C          5.97558        0.65077        1.02521
H          5.28773       -1.33276        1.56984
H          6.32110       -1.28056        0.16240
C          7.11405        0.64038        2.08262
H          6.34378        1.17328        0.12759
H          5.15241        1.25070        1.42741
C          8.45583        0.03343        1.60918
H          6.76876        0.10607        2.98519
H          7.29596        1.68372        2.39462
H          9.22783        0.14488        2.38685
H          8.82184        0.53974        0.70138
H          8.37084       -1.04055        1.38558
C          5.21565       -3.47451       -0.55311
H          3.24132       -2.74204       -1.02783
H          4.48032       -2.16487       -2.09668
C          4.97041       -4.83880       -1.25712
H          6.26942       -3.19638       -0.72369
H          5.11321       -3.62050        0.53204
C          5.33635       -4.88384       -2.75945
H          3.91433       -5.13318       -1.13530
H          5.56699       -5.60454       -0.73054
H          4.70911       -4.20874       -3.35968
H          5.19862       -5.90054       -3.15967
H          6.38972       -4.60263       -2.92252
C          6.13414       -0.36413       -2.77690
S          4.84095        1.75945       -3.63428
C          6.90394        0.14706       -3.87942
H          6.46257       -1.23165       -2.21682
C          6.35593        1.27839       -4.44997
H          7.82487       -0.31573       -4.22930
H          6.70247        1.85589       -5.30047
C          1.57894        2.22657       -2.57879
C          1.49097        0.06660       -3.80686
C          2.09732        3.08825       -1.43845
C          0.83755        2.84314       -3.62594
H          2.45352        2.49258       -0.59906
H          1.31105        3.74029       -1.04393
H          2.92660        3.72987       -1.78064
C          0.54658        4.33854       -3.55285
C          0.36102        2.06604       -4.72010
H          0.32784        4.76736       -4.53674
H          1.39803        4.89612       -3.14230
H         -0.31783        4.54584       -2.89856
C         -0.55651        2.69978       -5.76251
C          0.74219        0.69835       -4.84191
H         -1.23449        3.43125       -5.30538
H         -1.18358        1.95148       -6.25916
H          0.01131        3.22653       -6.54950
C          0.34332       -0.09566       -6.08270
H         -0.67406       -0.51279       -5.98381
H          1.01686       -0.93920       -6.26423
H          0.35575        0.52688       -6.98664
C          1.93159       -1.37738       -3.97322
H          2.37692       -1.76629       -3.06119
H          2.67633       -1.46009       -4.78242
H          1.08792       -2.03199       -4.22263
C          2.72844       -1.11696        1.88693
C          2.57559       -2.47123        2.32062
C          2.75771       -0.05251        2.84531
C          2.17629       -3.58242        1.36077
C          2.67370       -2.77005        3.71078
H          1.82520       -3.18653        0.40830
H          1.34285       -4.15916        1.78664
H          2.98619       -4.29841        1.16639
C          2.59534       -4.21964        4.17987
C          2.79972       -1.72307        4.66849
H          1.56526       -4.49844        4.46408
H          3.22611       -4.39677        5.05968
H          2.91585       -4.92352        3.40411
C          2.91625       -2.07869        6.14738
C          2.77131       -0.36417        4.23933
H          2.06604       -2.69202        6.48478
H          2.96147       -1.19860        6.79355
H          3.82750       -2.66751        6.34147
C          2.75994        0.75459        5.28008
H          2.58455        1.73796        4.83815
H          3.71510        0.80927        5.82846
H          1.96763        0.59676        6.02689
C          2.69242        1.40499        2.41267
H          2.77513        1.51290        1.33371
H          3.48076        2.01287        2.87804
H          1.72525        1.84743        2.69542
