95
/cluster/projects/nn2506k/marcof/RuC_BondLength/evolutionary_desing/RUN28052021121055/Gen007/M00000082_I_DFT.out	Energy: -1245307.2817919
Ru         0.19935        0.86391       -0.09929
C         -0.33696        0.34173        1.55412
C          2.02976        0.21018       -0.29103
Cl        -1.20200       -0.61028       -1.40134
Cl         0.83430        3.15682        0.28642
H          0.10342       -0.42795        2.18991
H         -1.28270        0.80171        1.91146
N          2.66612        0.30415       -1.53047
N          2.96802       -0.22381        0.63306
C          4.21749        0.25805       -1.37561
C          1.92760        0.21640       -2.77863
C          4.32252       -0.63613       -0.02828
C          4.65655        1.76052       -1.18386
C          4.92631       -0.40405       -2.59487
C          5.56576       -0.22698        0.82917
C          4.26493       -2.20035       -0.19861
C          5.98172       -1.05579        2.07644
H          5.45621        0.81565        1.13935
H          6.42176       -0.25091        0.14039
C          7.26511       -0.47766        2.72050
H          6.17067       -2.10422        1.80876
H          5.18828       -1.06559        2.83302
H          7.11675        0.56264        3.05092
H          7.56254       -1.06876        3.60098
H          8.11019       -0.48529        2.01330
C          5.48292       -2.99823       -0.75125
H          3.37491       -2.46342       -0.77458
H          4.08834       -2.58450        0.81343
C          5.36343       -4.50420       -0.41390
H          6.43269       -2.61841       -0.34682
H          5.55269       -2.90213       -1.84110
H          4.42753       -4.92677       -0.81205
H          6.19994       -5.07273       -0.85040
H          5.37337       -4.67913        0.67423
C          6.15421        2.18860       -1.21280
H          4.19641        2.14429       -0.26589
H          4.16851        2.29947       -1.99825
C          6.27801        3.71978       -1.41229
H          6.70057        1.68404       -2.02345
H          6.67362        1.92566       -0.28237
H          5.75841        4.26628       -0.60956
H          7.33432        4.03399       -1.40506
H          5.83275        4.03781       -2.36684
C          5.02491        0.36107       -3.94331
H          4.46105       -1.37415       -2.79538
H          5.95533       -0.61831       -2.27040
C          5.86344       -0.43419       -4.97161
H          5.47623        1.35092       -3.80582
H          4.02929        0.53921       -4.36458
H          5.42130       -1.42260       -5.17740
H          5.92391        0.10857       -5.92793
H          6.89411       -0.59682       -4.61566
C          1.38971        1.30548       -3.54357
C          1.63237       -1.07605       -3.28561
C          0.61699        1.03276       -4.70242
C          1.63833        2.79311       -3.32114
C          0.36954       -0.26970       -5.18609
H          0.20468        1.87406       -5.25855
C         -0.49161       -0.50922       -6.41798
C          0.90573       -1.34281       -4.44805
C         -1.99290       -0.71493       -6.07215
H         -0.12677       -1.39655       -6.95958
H         -0.39769        0.34380       -7.10856
H         -2.40782        0.16568       -5.56034
H         -2.13426       -1.57992       -5.40828
H         -2.57555       -0.88598       -6.99055
H          0.73632       -2.38025       -4.73368
C          0.43563        3.73698       -3.33348
O          2.80432        3.25406       -3.24442
H          0.32527        4.17855       -4.33827
H         -0.50128        3.23959       -3.06049
H          0.63285        4.55582       -2.63255
F          2.08427       -2.20256       -2.58007
C          2.76123       -0.23563        2.05792
C          2.34744       -1.38028        2.81914
C          3.04593        0.93281        2.80624
C          2.25443       -1.28421        4.23158
C          1.89715       -2.68987        2.19012
C          2.50465       -0.08795        4.94234
H          1.94436       -2.16212        4.79631
C          2.31327       -0.00566        6.45070
C          2.91261        1.03761        4.19663
C          0.89379        0.47825        6.85772
H          3.05870        0.68117        6.88185
H          2.49568       -0.99376        6.90197
H          0.80630        0.52614        7.95393
H          0.11651       -0.20463        6.48342
H          0.68327        1.48006        6.45516
H          3.13821        1.99118        4.67323
C          2.22096       -3.99907        2.91986
O          1.23499       -2.70886        1.12413
H          3.20073       -3.97961        3.41544
H          1.45638       -4.20780        3.68617
H          2.18418       -4.81872        2.19221
F          3.51956        2.06905        2.14277
