77
/cluster/projects/nn2506k/marcof/RuC_BondLength/evolutionary_desing/RUN28052021121055/Gen007/M00000084_I_DFT.out	Energy: -926329.9022777
Ru        -0.20251       -0.16865       -0.20969
C         -0.53086       -0.99206        1.37557
C          1.74026       -0.23222       -0.39144
Cl        -0.80983       -1.94662       -1.72706
Cl        -0.49313        2.11753        0.51712
H          0.18194       -1.39970        2.09593
H         -1.60744       -1.06912        1.64081
N          2.38080        0.41373       -1.44680
N          2.72671       -0.85136        0.37289
C          3.85262        0.21632       -1.44249
C          1.78113        1.16219       -2.54487
C          4.13063       -0.49557       -0.09520
H          4.15832       -0.38585       -2.30806
H          4.37101        1.18222       -1.50808
C          5.13565       -1.64738       -0.17434
H          4.52984        0.23133        0.62720
C          6.20993       -1.68418        0.74719
C          5.06847       -2.65663       -1.16705
C          7.19064       -2.69658        0.68454
H          6.28165       -0.91792        1.52175
C          7.11215       -3.69453       -0.30919
H          8.01027       -2.70392        1.40512
C          6.04471       -3.67005       -1.23398
H          7.86971       -4.47828       -0.36392
H          5.97359       -4.43860       -2.00576
H          4.25026       -2.66608       -1.88731
C          1.69445        2.58192       -2.44043
C          1.42342        0.47797       -3.74397
C          2.26539        3.32261       -1.24003
C          1.08322        3.30806       -3.50214
H          2.60579        2.63631       -0.46252
H          1.51569        3.97399       -0.77527
H          3.11911        3.95289       -1.54150
C          0.94168        4.82407       -3.40841
C          0.58820        2.61869       -4.64748
H          1.07695        5.30816       -4.38454
H          1.67325        5.26576       -2.72428
H         -0.05775        5.10916       -3.03636
C         -0.17474        3.38488       -5.72422
C          0.81456        1.21967       -4.79720
H         -0.71803        4.23885       -5.30318
H         -0.91436        2.74880       -6.22452
H          0.49859        3.77950       -6.50558
C          0.39582        0.51404       -6.08345
H          0.97741       -0.39635       -6.26201
H          0.52453        1.15772       -6.96310
H         -0.66609        0.21420       -6.04846
C          1.71738       -1.00367       -3.92951
H          0.82636       -1.55632       -4.24900
H          2.05416       -1.47351       -3.00424
H          2.49672       -1.14949       -4.69692
C          2.60046       -1.49550        1.67139
C          2.39285       -2.90337        1.73836
C          2.77309       -0.70622        2.84773
C          2.12677       -3.71898        0.48199
C          2.38639       -3.53558        3.01728
H          2.03025       -3.08446       -0.39876
H          1.18729       -4.28318        0.57160
H          2.93194       -4.44488        0.29394
C          2.19024       -5.04542        3.12381
C          2.56763       -2.76237        4.20111
H          2.91427       -5.49606        3.81743
H          2.31074       -5.54806        2.16038
H          1.18318       -5.29919        3.49696
C          2.52533       -3.43612        5.56962
C          2.77791       -1.35462        4.11626
H          1.94144       -4.36254        5.55466
H          2.07653       -2.78438        6.32942
H          3.53836       -3.69620        5.92403
C          3.00150       -0.54469        5.39031
H          3.48956        0.41462        5.19094
H          3.63424       -1.08672        6.10575
H          2.05001       -0.32248        5.90419
C          2.89727        0.81096        2.76939
H          2.20885        1.29600        3.47513
H          2.64121        1.19372        1.77994
H          3.91367        1.15690        3.02188
