94
/cluster/projects/nn2506k/marcof/RuC_BondLength/evolutionary_desing/RUN28052021044732/Gen021/M00000143_I_DFT.out	Energy: -1084287.3313772
Ru        -0.04246        0.06435        0.01038
C         -0.34161       -0.52261        1.70277
C          1.86580       -0.24902       -0.33687
Cl        -1.10341       -1.77819       -1.14854
Cl        -0.00378        2.43477        0.52056
H          0.35030       -0.97862        2.41282
H         -1.38887       -0.38531        2.05004
N          2.45112        0.22702       -1.51022
N          2.86116       -0.86580        0.41327
C          3.94963        0.20117       -1.39785
C          1.75063        0.92690       -2.58759
C          4.22333       -0.95478       -0.34701
C          4.71303        0.21914       -2.72056
H          4.24541        1.12858       -0.88328
C          5.46734       -0.53382        0.50605
C          4.38162       -2.39235       -0.94562
C          6.03466       -1.47406        1.60291
H          5.26658        0.44471        0.96159
H          6.27339       -0.36272       -0.22640
C          7.38718       -0.95410        2.14506
H          6.17953       -2.49013        1.21191
H          5.32943       -1.56306        2.43560
H          7.77201       -1.61654        2.93615
H          8.15041       -0.90371        1.35137
H          7.28802        0.05505        2.57679
C          5.73159       -2.79976       -1.59846
H          3.58524       -2.54767       -1.68342
H          4.19806       -3.09618       -0.12623
C          5.65566       -4.23002       -2.18365
H          6.54760       -2.76770       -0.86250
H          6.00878       -2.11038       -2.40263
H          5.40897       -4.97202       -1.40694
H          4.88601       -4.29810       -2.96814
H          6.61857       -4.52346       -2.63113
C          5.77278        1.14743       -2.88348
N          4.35446       -0.63821       -3.72153
C          6.48753        1.18377       -4.09769
H          6.02982        1.83524       -2.07780
C          6.11416        0.30267       -5.13317
H          7.30722        1.89045       -4.23475
C          5.04069       -0.58257       -4.89414
H          6.62895        0.30170       -6.09420
H          4.71231       -1.27864       -5.66913
C          1.80662        2.35279       -2.64423
C          1.09256        0.16960       -3.60457
C          2.57000        3.16991       -1.61140
C          1.12721        3.02966       -3.69554
H          2.72749        2.61465       -0.68608
H          2.01214        4.06945       -1.33004
H          3.54910        3.49568       -2.00354
C          1.21155        4.55040       -3.79022
C          0.35684        2.29302       -4.64050
H          2.19604        4.92143       -3.47868
H          0.46313        5.03962       -3.14249
H          1.04384        4.90756       -4.81262
C         -0.48453        3.03412       -5.67653
C          0.37151        0.86900       -4.61838
H         -0.91503        3.95365       -5.26006
H         -1.32045        2.42353       -6.03389
H          0.11011        3.32317       -6.56110
C         -0.38554        0.09228       -5.69248
H         -0.06456       -0.95088       -5.75443
H         -0.24861        0.53576       -6.68877
H         -1.46955        0.08091       -5.48545
C          1.17199       -1.34674       -3.65668
H          1.69586       -1.66598       -4.56992
H          0.17615       -1.80367       -3.64842
H          1.72538       -1.75067       -2.81170
C          2.69244       -1.38633        1.76370
C          2.30311       -2.74570        1.96559
C          2.92207       -0.51229        2.87274
C          1.80951       -3.62017        0.82026
C          2.27568       -3.26286        3.29455
H          0.81642       -4.02719        1.05790
H          2.47173       -4.47861        0.62892
H          1.70292       -3.05964       -0.10713
C          1.90883       -4.72335        3.53851
C          2.56234       -2.41793        4.40544
H          2.04666       -5.34096        2.64572
H          0.85336       -4.83007        3.84456
H          2.51953       -5.16449        4.33745
C          2.50265       -2.99925        5.81484
C          2.86562       -1.04005        4.19732
H          3.37797       -3.63880        6.02199
H          1.61152       -3.62753        5.95252
H          2.47608       -2.22693        6.58851
C          3.13190       -0.13643        5.39962
H          3.47243        0.86014        5.10855
H          3.90387       -0.56244        6.05814
H          2.22503       -0.00003        6.01180
C          3.16228        0.97816        2.66861
H          4.15398        1.29121        3.03073
H          2.41389        1.56914        3.21565
H          3.07510        1.26525        1.62129
