112
/cluster/projects/nn2506k/marcof/RuC_BondLength/evolutionary_desing/RUN28052021044732/Gen021/M00000146_I_DFT.out	Energy: -1232205.9720237
Ru        -0.19515       -0.05376       -0.12550
C         -0.59942       -0.65881        1.53864
C          1.73314       -0.35301       -0.34641
Cl        -1.13205       -1.89956       -1.38176
Cl        -0.23030        2.31083        0.41227
H          0.05276       -1.09774        2.29582
H         -1.67115       -0.54721        1.81258
N          2.40059        0.15875       -1.46014
N          2.67112       -1.00597        0.44611
C          3.88760        0.11177       -1.24278
C          1.78120        0.91299       -2.55059
C          4.07467       -1.09913       -0.23846
C          4.75070        0.20134       -2.49929
H          4.14890        1.00529       -0.65427
C          5.26959       -0.75001        0.71119
C          4.22277       -2.51967       -0.87990
C          5.77170       -1.77708        1.75985
H          5.03963        0.18987        1.22866
H          6.11675       -0.52245        0.04355
C          7.04944       -1.27456        2.47958
H          4.99622       -1.97229        2.50860
H          5.99575       -2.74184        1.28369
C          7.58164       -2.26302        3.54503
H          7.84246       -1.08535        1.73319
H          6.84068       -0.30234        2.96142
C          8.85666       -1.76742        4.26946
H          7.79302       -3.23593        3.06620
H          6.79046       -2.45222        4.29222
C          9.38488       -2.75608        5.33288
H          8.64725       -0.79502        4.74946
H          9.64894       -1.57896        3.52337
H          9.64055       -3.72838        4.88182
H         10.29076       -2.36694        5.82425
H          8.63196       -2.93928        6.11633
C          5.57768       -2.92947       -1.52383
H          3.42726       -2.64230       -1.62247
H          4.02057       -3.23524       -0.07510
C          5.68039       -4.45686       -1.79590
H          5.73083       -2.39910       -2.46967
H          6.41726       -2.65363       -0.86981
C          4.72166       -5.00796       -2.88088
H          6.71814       -4.67688       -2.10572
H          5.51956       -5.01025       -0.85257
C          4.93984       -6.51088       -3.18112
H          4.85824       -4.42910       -3.81154
H          3.67364       -4.85630       -2.57464
C          3.98671       -7.06682       -4.26277
H          4.80971       -7.09056       -2.24973
H          5.98539       -6.67093       -3.49986
H          4.11683       -6.53618       -5.21974
H          4.17134       -8.13742       -4.44579
H          2.93289       -6.95537       -3.96119
C          5.85152        1.09587       -2.50494
N          4.43837       -0.55253       -3.59400
C          6.65614        1.20475       -3.65673
H          6.07042        1.70393       -1.62711
C          6.32923        0.43218       -4.79009
H          7.50821        1.88580       -3.67237
C          5.21077       -0.42474       -4.70613
H          6.91287        0.49257       -5.70895
H          4.91515       -1.03689       -5.56103
C          1.85576        2.33892       -2.54067
C          1.18383        0.20958       -3.64093
C          2.55458        3.10005       -1.42298
C          1.25648        3.06972       -3.60428
H          2.63623        2.50429       -0.51318
H          1.99131        3.99722       -1.14511
H          3.56453        3.42340       -1.72952
C          1.36353        4.59179       -3.62617
C          0.54241        2.38543       -4.62937
H          2.33056        4.93521       -3.23758
H          0.58112        5.06247       -3.00544
H          1.26440        4.99542       -4.64016
C         -0.21757        3.18282       -5.68629
C          0.53832        0.96173       -4.66787
H         -0.67351        4.08421       -5.25713
H         -1.02738        2.59740       -6.13406
H          0.44186        3.51056       -6.50928
C         -0.15445        0.24292       -5.82281
H          0.14456       -0.80571       -5.89876
H          0.06810        0.71692       -6.78938
H         -1.25095        0.25402       -5.69827
C          1.25553       -1.30343       -3.75627
H          0.25852       -1.75198       -3.83044
H          1.75200       -1.74894       -2.89715
H          1.83405       -1.58639       -4.64830
C          2.42502       -1.53617        1.78067
C          2.01705       -2.89439        1.95130
C          2.60373       -0.67358        2.90832
C          1.57910       -3.75587        0.77458
C          1.91998       -3.42312        3.27224
H          1.51587       -3.18372       -0.14950
H          0.57621       -4.16592        0.95994
H          2.25064       -4.61187        0.60584
C          1.53233       -4.88325        3.48402
C          2.15657       -2.59035        4.40386
H          0.46219       -4.98549        3.73588
H          2.09933       -5.33567        4.30844
H          1.71092       -5.49374        2.59358
C          2.02456       -3.18466        5.80288
C          2.47733       -1.21257        4.22360
H          1.12092       -3.80386        5.89231
H          1.97071       -2.42003        6.58269
H          2.88185       -3.83672        6.04368
C          2.68508       -0.32079        5.44626
H          3.03879        0.67868        5.18218
H          3.42426       -0.75339        6.13744
H          1.74959       -0.19039        6.01505
C          2.85860        0.81821        2.73172
H          3.82517        1.12762        3.15875
H          2.07706        1.40583        3.23468
H          2.83931        1.11385        1.68343
