85
/cluster/projects/nn2506k/marcof/RuC_BondLength/evolutionary_desing/RUN28052021121055/Gen011/M00000102_I_DFT.out	Energy: -1091360.0409411
Ru        -0.21169        0.13357        0.00706
C         -0.56983       -0.90553        1.45298
C          1.72659        0.03282       -0.19972
Cl        -0.96601       -1.38274       -1.71676
Cl        -0.37572        2.28661        1.10055
H          0.12295       -1.46114        2.08850
H         -1.64725       -0.96531        1.71927
N          2.37508        0.69882       -1.24726
N          2.70770       -0.58827        0.56882
C          3.85240        0.38445       -1.27873
C          1.72715        1.28300       -2.42397
C          4.09408       -0.13887        0.15841
C          4.78850        1.50994       -1.72149
H          4.01316       -0.41296       -2.01409
C          5.21419       -1.17079        0.28760
H          4.38920        0.68118        0.82433
C          5.34657       -2.30854       -0.54279
N          6.13168       -0.87532        1.26076
C          6.44626       -3.16949       -0.35947
H          4.61131       -2.52353       -1.31533
C          7.39026       -2.87428        0.64660
H          6.56537       -4.05034       -0.99194
C          7.18875       -1.71666        1.42739
H          8.25583       -3.51437        0.81907
H          7.89398       -1.44185        2.21431
C          5.11336        2.63674       -0.93023
N          5.34333        1.31139       -2.95818
C          6.02396        3.58847       -1.42962
H          4.66665        2.77828        0.05173
C          6.58985        3.39446       -2.70725
H          6.28630        4.46283       -0.83237
C          6.21810        2.24126       -3.43010
H          7.29806        4.10790       -3.12934
H          6.63184        2.04321       -4.42092
C          1.40930        2.67369       -2.43327
C          1.51955        0.46618       -3.57505
C          1.76198        3.58200       -1.26639
C          0.76493        3.22208       -3.58209
H          2.16659        3.02043       -0.42527
H          0.88187        4.11661       -0.88993
H          2.50839        4.33197       -1.57273
C          0.38430        4.70017       -3.61375
C          0.47659        2.39612       -4.70634
H          0.60956        5.15604       -4.58792
H          0.91445        5.28235       -2.85494
H         -0.69481        4.84042       -3.42930
C         -0.29487        2.96288       -5.89532
C          0.90739        1.03845       -4.72471
H          0.37937        3.28406       -6.70864
H         -0.89996        3.83091       -5.61375
H         -0.98116        2.21786       -6.31787
C          0.70420        0.18120       -5.97003
H          1.53976       -0.51365       -6.12179
H          0.62267        0.78717       -6.87908
H         -0.21302       -0.42858       -5.89485
C          1.94072       -0.99526       -3.60964
H          2.08829       -1.40338       -2.60861
H          2.87551       -1.12051       -4.18207
H          1.17172       -1.61632       -4.08183
C          2.56331       -1.33268        1.81044
C          2.34566       -2.74108        1.75346
C          2.72686       -0.64963        3.04964
C          2.10407       -3.44672        0.42605
C          2.30292       -3.47864        2.97391
H          2.09061       -2.74593       -0.40884
H          1.13145       -3.96036        0.42234
H          2.87538       -4.20546        0.22447
C          2.07299       -4.98798        2.95186
C          2.47971       -2.81017        4.22161
H          2.81848       -5.51643        3.56418
H          2.13066       -5.40466        1.94300
H          1.07993       -5.25285        3.35258
C          2.40870       -3.59134        5.53085
C          2.71391       -1.40471        4.25714
H          1.89231       -4.54934        5.41609
H          1.87456       -3.02765        6.30718
H          3.41600       -3.80991        5.92635
C          2.94802       -0.70211        5.59097
H          3.45141       -1.35682        6.31254
H          1.99946       -0.37632        6.05296
H          3.57305        0.19047        5.47592
C          2.88287        0.86361        3.10108
H          2.27502        1.29428        3.90734
H          2.54799        1.33922        2.17690
H          3.93014        1.15451        3.28640
