81
/cluster/projects/nn2506k/marcof/RuC_BondLength/evolutionary_desing/RUN28052021121055/Gen006/M00000078_I_DFT.out	Energy: -986778.5749806
Ru        -0.17209        0.16623        0.01652
C         -0.54127       -0.87157        1.46068
C          1.76370        0.03510       -0.20062
Cl        -0.96627       -1.33241       -1.70511
Cl        -0.28746        2.32262        1.10739
H          0.14238       -1.45450        2.08144
H         -1.61677       -0.90368        1.73910
N          2.41133        0.69376       -1.25081
N          2.73540       -0.60446        0.56083
C          3.90128        0.42404       -1.27438
C          1.76850        1.24999       -2.44316
C          4.14205       -0.24784        0.11408
C          4.79892        1.61347       -1.52924
H          4.08629       -0.31030       -2.06834
C          5.13853       -1.38356        0.07229
H          4.51855        0.50583        0.81796
C          5.27310       -2.43630       -0.82001
S          6.46414       -1.44312        1.30982
C          6.39306       -3.29937       -0.55473
H          4.58960       -2.60815       -1.64834
C          7.13699       -2.91267        0.54555
H          6.63656       -4.16982       -1.16121
H          8.02575       -3.36979        0.96705
C          5.17158        2.66078       -0.70070
S          5.62570        1.76651       -3.13720
C          6.09140        3.59143       -1.29835
H          4.79340        2.78679        0.31155
C          6.44053        3.26322       -2.59603
H          6.47742        4.46854       -0.78217
H          7.10900        3.77864       -3.27723
C          1.45219        2.63965       -2.49269
C          1.56369        0.39946       -3.57123
C          1.79889        3.57949       -1.35000
C          0.81411        3.15476       -3.66051
H          2.19994        3.04169       -0.49248
H          0.91697        4.12699       -0.99620
H          2.55043        4.31701       -1.67230
C          0.43868        4.63219       -3.73723
C          0.52706        2.29670       -4.76057
H          0.65693        5.05498       -4.72756
H          0.97862        5.23595       -3.00258
H         -0.63816        4.78282       -3.54757
C         -0.23970        2.82960       -5.96781
C          0.95384        0.93763       -4.73825
H          0.43858        3.13891       -6.78239
H         -0.85434        3.69842       -5.71010
H         -0.91589        2.06967       -6.37948
C          0.73902        0.04431       -5.95586
H          1.54126       -0.69564       -6.06483
H          0.70617        0.62032       -6.88764
H         -0.20866       -0.51699       -5.88020
C          1.97362       -1.06675       -3.55904
H          2.17374       -1.43082       -2.55016
H          2.87095       -1.23576       -4.17954
H          1.17341       -1.70025       -3.95778
C          2.59075       -1.30446        1.82798
C          2.36860       -2.71239        1.82090
C          2.75789       -0.57666        3.04210
C          2.11962       -3.46348        0.52076
C          2.32805       -3.40577        3.06651
H          2.06284       -2.78688       -0.33214
H          1.16711       -4.01221        0.55802
H          2.91467       -4.19703        0.32051
C          2.11162       -4.91641        3.09656
C          2.49328       -2.69197        4.28986
H          2.82036       -5.40907        3.77733
H          2.23977       -5.37426        2.11198
H          1.09663       -5.17540        3.44360
C          2.41034       -3.42797        5.62388
C          2.72838       -1.28611        4.27713
H          3.41277       -3.69999        5.99859
H          1.83137       -4.35436        5.54917
H          1.93463       -2.81173        6.39710
C          2.94406       -0.54205        5.59155
H          1.98601       -0.30007        6.08395
H          3.47855        0.40251        5.44830
H          3.52997       -1.13981        6.30188
C          2.92738        0.93727        3.03896
H          3.95441        1.23426        3.31087
H          2.25223        1.40832        3.76571
H          2.68235        1.37642        2.07032
