66
/cluster/projects/nn2506k/marcof/RuC_BondLength/evolutionary_desing/RUN28052021044732/Gen029/M00000184_I_DFT.out	Energy: -1217824.8340153
Ru        -0.01756        0.70416        0.23637
C          0.12762        1.69391        1.76375
C          1.89344        0.36997        0.03454
Cl        -0.74348       -1.47608        0.89082
Cl        -0.83969        2.38592       -1.28840
H          1.05297        2.10503        2.18181
H         -0.81350        1.97230        2.27400
N          2.71175       -0.46920        0.79424
N          2.72568        0.91733       -0.94323
C          4.14983       -0.40364        0.39985
C          2.38189       -1.37340        1.85379
C          4.15615        0.32901       -0.96945
H          4.56194       -1.41430        0.32424
H          4.70071        0.15404        1.16688
C          4.33360       -0.64096       -2.17876
C          5.26226        1.41976       -1.02383
C          5.75500       -1.25478       -2.25329
H          3.57938       -1.43591       -2.13748
H          4.16936       -0.07718       -3.10798
C          6.84943       -0.16501       -2.27368
H          5.92772       -1.93555       -1.40299
H          5.81706       -1.87820       -3.15959
C          6.68461        0.80342       -1.08183
H          6.78506        0.40217       -3.21854
H          7.84874       -0.62871       -2.25046
H          7.41694        1.62392       -1.15123
H          6.90683        0.27297       -0.14030
H          5.17966        2.08219       -0.15393
H          5.12054        2.03803       -1.92338
C          2.26275       -0.98354        3.22157
C          2.25347       -2.76796        1.60372
N          2.52070        0.41133        3.67492
C          1.94057       -1.89186        4.24523
O          3.44484        1.08689        3.08757
O          1.83463        0.85294        4.66735
C          1.79489       -3.25939        3.94440
H          1.82113       -1.53372        5.26273
C          1.97118       -3.69754        2.61423
C          1.46673       -4.28601        4.98888
H          1.86007       -4.75399        2.38021
O          1.28947       -3.70586        6.23909
O          1.36359       -5.51256        4.76877
C          0.93616       -4.61746        7.35329
H         -0.01287       -5.12662        7.13859
H          1.72855       -5.36375        7.49994
H          0.84343       -3.96282        8.22582
Cl         2.41522       -3.41305       -0.07173
C          2.33315        1.92311       -1.88655
C          1.87252        1.61496       -3.20147
C          2.49408        3.30776       -1.60722
N          1.51676        0.22335       -3.60275
C          1.65339        2.59395       -4.18331
O          1.79533       -0.13006       -4.80894
O          0.92839       -0.53013       -2.74918
C          1.85798        3.95156       -3.86907
H          1.30867        2.29990       -5.16953
C          2.26263        4.30609       -2.56465
C          1.63735        5.05393       -4.86308
H          2.38761        5.35656       -2.31148
O          1.19005        4.56176       -6.08296
O          1.83267        6.26722       -4.63074
C          0.91681        5.55883       -7.14496
H          0.13378        6.25550       -6.81698
H          1.83044        6.11934       -7.38471
H          0.58187        4.96440       -8.00108
Cl         2.96898        3.86571        0.04407
