88
/cluster/projects/nn2506k/marcof/RuC_BondLength/evolutionary_desing/RUN28052021044732/Gen029/M00000185_I_DFT.out	Energy: -953957.6605646
Ru         0.11151        0.28659       -0.09566
C         -0.31245       -0.40534        1.52931
C          2.04039       -0.03255       -0.33529
Cl        -0.90320       -1.46790       -1.43302
Cl         0.14115        2.61313        0.60254
H          0.32817       -0.90228        2.26056
H         -1.38268       -0.28998        1.80767
N          2.66178        0.34720       -1.52406
N          3.00418       -0.54552        0.51623
C          4.17730        0.34935       -1.40422
C          1.90030        0.93541       -2.62606
C          4.41343       -0.61325       -0.15575
C          5.00249        0.06902       -2.71948
H          4.45720        1.36510       -1.09271
C          5.54595       -0.10288        0.80646
C          4.72616       -2.09843       -0.59687
C          5.85928        1.40791        0.92513
H          5.32519       -0.50130        1.80487
H          6.47825       -0.59610        0.50169
H          6.53723        1.56229        1.77977
H          4.97332        2.02735        1.09848
H          6.37531        1.79680        0.03752
C          5.37188       -3.07191        0.42284
H          3.80292       -2.54052       -0.98381
H          5.41005       -2.05748       -1.45056
H          5.40534       -4.07922       -0.02260
H          4.82166       -3.14317        1.36546
H          6.40904       -2.79549        0.65943
C          6.54040        0.06247       -2.45920
C          4.77965        1.11590       -3.84978
H          4.71297       -0.91439       -3.11645
H          6.87103       -0.63275       -1.68179
H          6.89520        1.06718       -2.18598
H          7.05630       -0.22085       -3.38884
H          3.77681        1.09069       -4.27763
H          5.49220        0.91580       -4.66486
H          4.97460        2.13741       -3.49024
C          1.73544        2.35047       -2.70755
C          1.38390        0.07028       -3.63800
C          2.44442        3.29601       -1.75049
C          0.92535        2.88936       -3.74855
H          2.81665        2.78358       -0.86322
H          1.77256        4.08193       -1.39117
H          3.29608        3.78697       -2.25251
C          0.74234        4.40067       -3.84786
C          0.28506        2.02204       -4.68023
H          0.47349        4.71906       -4.86108
H          1.65932        4.93776       -3.57520
H         -0.05062        4.75493       -3.16649
C         -0.69879        2.59110       -5.69909
C          0.56345        0.62371       -4.66248
H         -0.18971        2.95915       -6.60723
H         -1.26593        3.43178       -5.28070
H         -1.43018        1.84055       -6.01798
C         -0.03630       -0.28418       -5.73163
H         -0.06985        0.20541       -6.71379
H         -1.06884       -0.57348       -5.47040
H          0.53175       -1.21188       -5.85227
C          1.72628       -1.41152       -3.66176
H          2.29365       -1.70633       -2.77859
H          2.33075       -1.65612       -4.55148
H          0.82263       -2.03105       -3.68780
C          2.74468       -1.15645        1.81919
C          2.32482       -2.52295        1.90837
C          2.91213       -0.37101        3.00237
C          1.84861       -3.29992        0.68834
C          2.28192       -3.14848        3.19012
H          1.80213       -2.68119       -0.20549
H          0.82504       -3.66686        0.84947
H          2.47910       -4.17653        0.47834
C          1.88735       -4.61661        3.32719
C          2.61927       -2.41178        4.36258
H          1.43080       -5.01765        2.41892
H          1.16962       -4.76666        4.14660
H          2.76489       -5.24730        3.55152
C          2.65491       -3.11258        5.71646
C          2.86668       -1.01255        4.27629
H          3.33855       -2.61763        6.41570
H          2.98051       -4.15599        5.62629
H          1.65885       -3.12627        6.19300
C          3.08431       -0.21149        5.55717
H          4.07097       -0.42688        6.00213
H          2.33019       -0.45592        6.31928
H          3.03792        0.86765        5.39023
C          3.03996        1.14314        2.92894
H          3.98272        1.50873        3.36071
H          2.21965        1.61773        3.48731
H          2.96079        1.50409        1.90506
