79
/cluster/projects/nn2506k/marcof/RuC_BondLength/evolutionary_desing/RUN28052021121055/Gen012/M00000107_I_DFT.out	Energy: -880020.3901115
Ru        -0.14851       -0.18053       -0.18458
C         -0.52074       -1.02811        1.37756
C          1.79916       -0.25373       -0.36958
Cl        -0.80577       -1.90234       -1.74703
Cl        -0.39439        2.08857        0.61847
H          0.16490       -1.45473        2.11208
H         -1.60547       -1.08842        1.61425
N          2.42150        0.44495       -1.39641
N          2.80100       -0.88884        0.37200
C          3.89482        0.30064       -1.38117
C          1.80362        1.17173       -2.49954
C          4.20010       -0.43434       -0.05085
H          4.21788       -0.26859       -2.26247
H          4.37212        1.28743       -1.42694
C          5.40784       -1.45658       -0.16143
H          4.52477        0.30293        0.70005
C          5.79175       -2.05100        1.22616
C          5.17795       -2.61614       -1.16800
C          6.63295       -0.60842       -0.64437
H          5.93768       -1.26033        1.97731
H          6.73962       -2.60362        1.13868
H          5.03631       -2.74303        1.60937
H          4.34398       -3.25589       -0.86744
H          6.08059       -3.24392       -1.21579
H          4.98146       -2.25893       -2.18871
H          6.83204        0.23744        0.03250
H          6.49789       -0.21002       -1.65938
H          7.53400       -1.23874       -0.65894
C          1.68856        2.59028       -2.40847
C          1.45971        0.46915       -3.69247
C          2.24930        3.35459       -1.21826
C          1.06053        3.29370       -3.47560
H          2.58021        2.68375       -0.42356
H          1.49684        4.01665       -0.77385
H          3.10636        3.97807       -1.52547
C          0.89604        4.80826       -3.39693
C          0.57095        2.58270       -4.60984
H          0.98378        5.28111       -4.38356
H          1.64802        5.27075       -2.74902
H         -0.09193        5.08251       -2.98771
C         -0.21576        3.32208       -5.68827
C          0.82564        1.18721       -4.74742
H         -0.93654        2.66275       -6.18564
H          0.44437        3.73430       -6.47184
H         -0.78396        4.16071       -5.26879
C          0.40898        0.46151       -6.02310
H          0.98664       -0.45404       -6.18525
H          0.54189        1.09063       -6.91302
H         -0.65411        0.16655       -5.98545
C          1.79635       -1.00451       -3.87089
H          2.55396       -1.13273       -4.66256
H          0.91402       -1.58963       -4.15438
H          2.18303       -1.45311       -2.95458
C          2.60202       -1.54040        1.66062
C          2.28502       -2.93061        1.70674
C          2.76589       -0.77523        2.85358
C          1.99047       -3.71233        0.43465
C          2.18965       -3.57430        2.97760
H          2.03970       -3.07934       -0.45081
H          0.97555       -4.13425        0.46124
H          2.68816       -4.55322        0.29928
C          1.85621       -5.06208        3.06189
C          2.40724       -2.83185        4.17587
H          2.58698       -5.60357        3.68123
H          1.84373       -5.54432        2.08154
H          0.86420       -5.22841        3.51394
C          2.30319       -3.50974        5.53907
C          2.70325       -1.43882        4.11252
H          3.30075       -3.69376        5.97434
H          1.79038       -4.47454        5.48895
H          1.75198       -2.88681        6.25683
C          2.93714       -0.65448        5.40024
H          3.45347       -1.26096        6.15500
H          1.98662       -0.31869        5.85074
H          3.54676        0.24002        5.23307
C          2.94682        0.73711        2.80811
H          2.67395        1.15302        1.83648
H          3.98181        1.04133        3.03816
H          2.29725        1.22685        3.54589
