77
/cluster/projects/nn2506k/marcof/RuC_BondLength/evolutionary_desing/RUN28052021121055/Gen005/M00000072_I_DFT.out	Energy: -879276.8960154
Ru        -0.04723       -0.21145       -0.33910
C         -0.43840       -1.25748        1.09330
C          1.89944       -0.14041       -0.35179
Cl        -0.45819       -1.82703       -2.08759
Cl        -0.52181        1.95213        0.62659
H          0.24686       -1.76717        1.77470
H         -1.52442       -1.39569        1.28436
N          2.60323        0.52788       -1.36750
N          2.85386       -0.64352        0.53914
C          4.04088        0.69220       -0.97355
C          2.04713        1.19926       -2.53610
C          5.16005        0.75003       -2.02243
C          4.22930       -0.51702       -0.05788
H          4.11630        1.61312       -0.36599
C          6.49814        0.89197       -1.23658
H          5.03002        1.60382       -2.70304
H          5.17046       -0.16327       -2.63507
C          6.68827       -0.18687       -0.13159
H          6.53536        1.89377       -0.77491
H          7.34255        0.84225       -1.94275
C          5.46774       -0.32282        0.82881
H          6.87477       -1.16446       -0.60905
H          7.58922        0.04937        0.45723
H          5.61722       -1.17488        1.50741
H          5.36458        0.58084        1.44834
H          4.40459       -1.41620       -0.67744
C          1.74836        2.59286       -2.47521
C          1.92550        0.46572       -3.75444
C          2.03242        3.41499       -1.22640
C          1.19723        3.22823       -3.62525
H          2.21423        2.78871       -0.35274
H          1.18422        4.05940       -0.96874
H          2.91094        4.06621       -1.37843
C          0.87694        4.71943       -3.58172
C          0.93742        2.47222       -4.80458
H          0.93326        5.18086       -4.57463
H          1.57205        5.26578       -2.93335
H         -0.13864        4.90300       -3.18942
C          0.22142        3.12462       -5.98417
C          1.35029        1.11031       -4.88760
H         -0.51270        3.86689       -5.64768
H         -0.32189        2.38762       -6.58593
H          0.92467        3.64304       -6.65965
C          1.16342        0.34180       -6.19257
H          1.80849       -0.53998       -6.25069
H          1.38554        0.96538       -7.06920
H          0.12430       -0.01483       -6.29869
C          2.41947       -0.96911       -3.86854
H          2.77424       -1.35076       -2.91011
H          3.24864       -1.03833       -4.59235
H          1.62246       -1.64309       -4.20451
C          2.67469       -1.43999        1.73810
C          2.69338       -2.86244        1.63581
C          2.58546       -0.77948        2.99826
C          2.72948       -3.54954        0.27621
C          2.63641       -3.63766        2.82960
H          2.48230       -2.86171       -0.53477
H          1.99667       -4.36637        0.22717
H          3.71862       -3.99003        0.06527
C          2.70561       -5.16019        2.75500
C          2.50575       -2.99383        4.09545
H          3.19416       -5.50474        1.83748
H          1.70036       -5.61631        2.77718
H          3.26841       -5.58076        3.59841
C          2.37583       -3.84064        5.35833
C          2.49243       -1.57020        4.18218
H          1.78810       -4.74950        5.17691
H          1.88464       -3.29654        6.17161
H          3.36289       -4.16382        5.73330
C          2.38321       -0.89860        5.54857
H          2.58572        0.17468        5.50296
H          3.09024       -1.33346        6.27006
H          1.37288       -1.01653        5.97561
C          2.56283        0.74061        3.08282
H          1.64842        1.09927        3.57719
H          2.58608        1.19894        2.09355
H          3.42021        1.12481        3.65834
