83
/cluster/projects/nn2506k/marcof/RuC_BondLength/evolutionary_desing/RUN28052021121055/Gen030/M00000204_I_DFT.out	Energy: -1146694.8238333
Ru         0.20502        0.85841       -0.07792
C         -0.33440        0.30156        1.56316
C          2.03371        0.20259       -0.27200
Cl        -1.19758       -0.58438       -1.41300
Cl         0.84050        3.14310        0.34819
H          0.10154       -0.48923        2.17561
H         -1.27677        0.75792        1.93346
N          2.67562        0.30733       -1.50789
N          2.96788       -0.24693        0.65022
C          4.22433        0.24327       -1.35103
C          1.94339        0.24174       -2.76082
C          4.31985       -0.65870       -0.01206
C          4.68147        1.73859       -1.15498
C          4.92942       -0.41771       -2.57378
C          5.56389       -0.26196        0.85044
C          4.25737       -2.22050       -0.19468
C          5.96764       -1.10912        2.08464
H          6.41955       -0.27910        0.16209
H          5.45660        0.77739        1.17129
H          6.88994       -0.67800        2.50694
H          6.18722       -2.15465        1.83605
H          5.21732       -1.10248        2.88171
C          5.47528       -3.00480       -0.75613
H          4.08143       -2.61088        0.81442
H          3.36625       -2.47756       -0.77177
H          5.36932       -4.06364       -0.46962
H          6.43946       -2.65778       -0.36207
H          5.53431       -2.97857       -1.84928
C          6.18557        2.12932       -1.16353
H          4.21291        2.28276       -1.97677
H          4.21444        2.13258       -0.24492
H          6.25305        3.20527       -1.39043
H          6.76962        1.60459       -1.93122
H          6.68849        1.97584       -0.20134
C          5.04020        0.36713       -3.90543
H          5.95272       -0.65020       -2.24621
H          4.45245       -1.37932       -2.78519
H          5.63955       -0.23176       -4.61061
H          5.53490        1.33776       -3.79276
H          4.06868        0.54804       -4.37500
C          1.42161        1.34536       -3.51549
C          1.64139       -1.04185       -3.28559
C          0.65916        1.09387       -4.68590
C          1.67277        2.82811       -3.26333
C          0.40594       -0.20033       -5.18858
H          0.25926        1.94551       -5.23532
C         -0.44366       -0.41663       -6.43275
C          0.92406       -1.28769       -4.45831
C         -1.95055       -0.61228       -6.10596
H         -0.08115       -1.30070       -6.98119
H         -0.33410        0.44384       -7.11167
H         -2.52461       -0.76657       -7.03268
H         -2.36284        0.26595       -5.58795
H         -2.10733       -1.48396       -5.45440
H          0.74821       -2.31987       -4.75871
C          0.47211        3.77481       -3.27362
O          2.83830        3.28503       -3.16119
H          0.37131        4.22977       -4.27344
H         -0.46826        3.27569       -3.01594
H          0.66479        4.58387       -2.56020
F          2.07659       -2.18011       -2.58825
C          2.76383       -0.26607        2.07557
C          2.35840       -1.41667        2.83120
C          3.04761        0.89895        2.82962
C          2.26751       -1.32983        4.24417
C          1.91703       -2.72591        2.19518
C          2.51248       -0.13581        4.96073
H          1.96345       -2.21288        4.80442
C          2.32209       -0.06226        6.46966
C          2.91555        0.99541        4.22074
C          0.90021        0.41157        6.88016
H          3.06394        0.62666        6.90362
H          2.51046       -1.05156        6.91582
H          0.12651       -0.27380        6.50297
H          0.68378        1.41417        6.48275
H          0.81330        0.45346        7.97666
H          3.13955        1.94672        4.70256
C          2.28968       -4.03770        2.89589
O          1.22594       -2.74242        1.14760
H          2.24449       -4.84941        2.15964
H          3.28484       -4.00378        3.35918
H          1.55633       -4.27137        3.68519
F          3.52080        2.03812        2.17136
