83
/cluster/projects/nn2506k/marcof/RuC_BondLength/evolutionary_desing/RUN28052021044948/Gen008/M00000079_I_DFT.out	Energy: -928584.9768065
Ru         0.15495        0.51773        0.20733
C         -0.27431       -0.11099        1.85607
C          2.03768        0.05147       -0.05359
Cl        -0.89993       -1.20856       -1.11561
Cl         0.39860        2.85955        0.74842
H          0.34320       -0.64785        2.57898
H         -1.32696        0.08601        2.15476
N          2.68258        0.36727       -1.24709
N          2.97102       -0.57661        0.76655
C          4.07429       -0.14103       -1.29830
C          2.11362        1.00981       -2.42457
C          4.36351       -0.64713        0.14352
H          4.75825        0.66015       -1.59989
H          4.15349       -0.95024       -2.03916
C          5.03542       -2.05173        0.15336
C          5.44789        0.21324        0.86718
C          6.52900       -1.77316       -0.16733
H          4.57250       -2.74663       -0.55806
H          4.94452       -2.48730        1.15661
C          6.79934       -0.30256        0.30314
H          7.18375       -2.49574        0.34082
H          6.72383       -1.87339       -1.24580
H          7.13889        0.31591       -0.54107
H          7.58863       -0.25325        1.06709
H          5.39879        0.01676        1.94480
H          5.30262        1.29034        0.71409
C          2.18050        2.43201       -2.56804
C          1.57532        0.19792       -3.46989
C          2.93983        3.33399       -1.59926
C          1.54397        3.01425       -3.69015
C          4.37896        3.74708       -2.05362
H          2.35598        4.24990       -1.42632
H          3.01669        2.84587       -0.62335
C          4.47058        4.80206       -3.18265
H          4.89252        4.15375       -1.16378
H          4.94938        2.85306       -2.35840
C          5.92384        5.23535       -3.48206
H          3.87945        5.68978       -2.89656
H          4.01747        4.40628       -4.10454
H          6.40195        5.67667       -2.59260
H          5.95596        5.98723       -4.28650
H          6.53882        4.37845       -3.80215
C          0.91777        2.24415       -4.69367
H          1.53479        4.10131       -3.77413
C          0.19081        2.90610       -5.85220
C          0.98026        0.83818       -4.58034
H         -0.86725        3.08526       -5.59621
H          0.20488        2.27758       -6.75434
H          0.63270        3.88006       -6.10774
H          0.54316        0.21835       -5.36537
C          1.67074       -1.31947       -3.47402
H          2.61067       -1.64172       -3.95566
H          0.84343       -1.75803       -4.04579
H          1.62978       -1.74728       -2.46952
C          2.73684       -1.11544        2.09535
C          2.92963       -0.28805        3.24408
C          2.32826       -2.48222        2.24785
C          3.19735        1.20908        3.17592
C          2.79027       -0.86787        4.52875
H          2.40702        1.75278        3.71458
H          3.20646        1.59514        2.15600
H          4.15364        1.46567        3.65808
C          2.44057       -2.22133        4.71200
H          2.93941       -0.23089        5.40309
C          2.32286       -2.82641        6.10130
C          2.19122       -2.99731        3.55777
H          2.20739       -2.05297        6.87322
H          3.22265       -3.41243        6.35442
H          1.46280       -3.50869        6.17381
H          1.86474       -4.02973        3.68381
C          1.92522       -3.36192        1.06194
C          2.50448       -4.80245        1.04256
H          0.82394       -3.43338        1.05733
H          2.18161       -2.86329        0.12226
C          2.06502       -5.59728       -0.21163
H          3.60570       -4.76546        1.08435
H          2.18059       -5.35765        1.93759
C          2.61406       -7.04072       -0.24488
H          2.39331       -5.06154       -1.11993
H          0.96240       -5.62444       -0.25640
H          3.71610       -7.05135       -0.23684
H          2.28098       -7.57098       -1.15094
H          2.26829       -7.61990        0.62648
