101
/cluster/projects/nn2506k/marcof/RuC_BondLength/evolutionary_desing/RUN28052021044948/Gen026/M00000174_I_DFT.out	Energy: -1076507.3103713
Ru         0.15652        0.55876        0.03585
C         -0.33245       -0.01193        1.68900
C          2.03743        0.05173       -0.15243
Cl        -0.89677       -1.18171       -1.26962
Cl         0.44219        2.90993        0.51014
H          0.25306       -0.54144        2.44327
H         -1.38808        0.21659        1.95281
N          2.72094        0.32002       -1.33438
N          2.93764       -0.55909        0.71646
C          4.12040       -0.16731       -1.31615
C          2.20205        0.92347       -2.55414
C          4.34544       -0.67691        0.13681
H          4.80616        0.64751       -1.57932
H          4.24993       -0.96910       -2.05755
C          4.96776       -2.10471        0.17296
C          5.43677        0.14798        0.88982
C          6.48070       -1.88111       -0.09730
H          4.50439       -2.78544       -0.55191
H          4.82725       -2.53262        1.17361
C          6.78436       -0.41370        0.36268
H          7.09126       -2.61745        0.44501
H          6.71175       -2.00438       -1.16613
H          7.15910        0.18427       -0.48155
H          7.55858       -0.37769        1.14260
H          5.35198       -0.04493        1.96608
H          5.33183        1.22913        0.73213
C          2.30943        2.33397       -2.75390
C          1.69450        0.07920       -3.58993
C          3.04191        3.27002       -1.79787
C          1.75655        2.88263       -3.93509
C          4.40366        3.77838       -2.35768
H          2.40369        4.14116       -1.58935
H          3.20643        2.78478       -0.83073
C          5.13334        4.73064       -1.37952
H          5.05889        2.92041       -2.58895
H          4.23827        4.30071       -3.31443
C          6.48250        5.25235       -1.92222
H          5.30219        4.21118       -0.41932
H          4.47588        5.58742       -1.15066
H          7.17958        4.42386       -2.12838
H          6.96842        5.92624       -1.19887
H          6.34490        5.81303       -2.86069
C          1.15693        2.08682       -4.93380
H          1.79959        3.96483       -4.07330
C          0.50152        2.71544       -6.15627
C          1.16877        0.68559       -4.75216
C         -1.00835        3.03236       -5.94222
H          1.02240        3.65009       -6.42236
H          0.59877        2.04004       -7.02235
C         -1.67749        3.66743       -7.18426
H         -1.53764        2.10290       -5.67324
H         -1.11601        3.71006       -5.07868
C         -3.17531        3.98327       -6.97460
H         -1.56608        2.98672       -8.04713
H         -1.14326        4.59648       -7.45224
H         -3.74601        3.07058       -6.74016
H         -3.61778        4.43297       -7.87777
H         -3.32092        4.69003       -6.14214
H          0.75446        0.04334       -5.53181
C          1.75959       -1.43832       -3.52706
H          2.70927       -1.79801       -3.96091
H          0.94435       -1.88567       -4.10941
H          1.67574       -1.82221       -2.50769
C          2.65500       -1.05181        2.05391
C          2.83311       -0.19117        3.18137
C          2.21102       -2.40323        2.23756
C          3.13929        1.29603        3.07096
C          2.64299       -0.72537        4.47806
H          2.36128        1.87539        3.58983
H          3.16241        1.65107        2.03990
H          4.10012        1.54253        3.54951
C          2.25759       -2.06484        4.69529
H          2.77783       -0.06278        5.33594
C          2.09434       -2.62154        6.10391
C          2.02520       -2.87168        3.55942
C          3.39949       -3.25204        6.67316
H          1.76585       -1.82032        6.78598
H          1.30225       -3.38815        6.11239
C          3.22607       -3.81835        8.10272
H          3.73730       -4.05648        5.99793
H          4.19827       -2.49095        6.67423
C          4.51835       -4.44386        8.67330
H          2.42444       -4.57802        8.09901
H          2.88399       -3.01187        8.77524
H          4.86882       -5.27898        8.04579
H          4.35500       -4.83512        9.68991
H          5.33124       -3.70201        8.72706
H          1.66938       -3.89121        3.70896
C          1.81862       -3.31100        1.06930
C          2.35926       -4.76589        1.11272
H          0.71641       -3.35431        1.03483
H          2.11469       -2.85071        0.12182
C          1.92888       -5.59159       -0.12455
H          3.45983       -4.75620        1.18051
H          1.99914       -5.28160        2.01747
C          2.43908       -7.04931       -0.09528
H          2.29341       -5.09630       -1.04191
H          0.82733       -5.59126       -0.19594
H          3.53990       -7.08872       -0.05912
H          2.11381       -7.60141       -0.99108
H          2.05654       -7.58894        0.78608
