73
/cluster/projects/nn2506k/marcof/RuC_BondLength/evolutionary_desing/RUN28052021044732/Gen026/M00000169_I_DFT.out	Energy: -1017968.7269313
Ru         0.10211        0.58368        0.23089
C         -0.32812       -0.36503        1.71848
C          1.97441        0.16070       -0.15586
Cl        -1.09006       -0.75453       -1.38410
Cl         0.48188        2.73831        1.26473
H          0.26640       -1.08356        2.28635
H         -1.36062       -0.18120        2.08622
N          2.59002        0.63009       -1.32055
N          2.94414       -0.48236        0.60375
C          4.12179        0.54937       -1.23166
C          1.90164        1.11290       -2.52206
C          4.29884       -0.58569       -0.12572
C          4.69504        1.92327       -0.77758
C          4.77827        0.21077       -2.59103
C          5.49627       -0.34366        0.82747
C          4.49088       -2.01157       -0.71672
H          5.44706        0.61054        1.35352
H          6.42985       -0.36874        0.24795
H          5.55537       -1.14499        1.57471
H          3.69341       -2.30213       -1.40364
H          4.53270       -2.74497        0.09603
H          5.44708       -2.06915       -1.25314
H          4.24431        2.27869        0.15460
H          4.51497        2.67323       -1.55301
H          5.78178        1.85662       -0.63818
H          4.42790       -0.72842       -3.02212
H          5.86766        0.14353       -2.46111
H          4.58452        1.01174       -3.31571
C          1.66324        2.51058       -2.73915
C          1.51482        0.16103       -3.52541
C          1.99680        3.62825       -1.76369
C          1.06225        2.91522       -3.95353
H          1.12770        4.28980       -1.64632
H          2.82120        4.24756       -2.15247
H          2.25971        3.27457       -0.76943
C          0.69646        1.99256       -4.95196
H          0.87064        3.97383       -4.12602
C          0.92078        0.62076       -4.71946
C          0.07180        2.51233       -6.20806
H          0.61764       -0.10261       -5.47295
O         -0.25799        1.48400       -7.09692
O         -0.14091        3.72027       -6.46326
C         -0.90061        1.89215       -8.36457
H         -1.84797        2.41113       -8.16401
H         -0.23768        2.55672       -8.93577
H         -1.07433        0.95374       -8.90228
C          1.69273       -1.34280       -3.39757
H          0.79348       -1.85417       -3.76266
H          1.84467       -1.66147       -2.36749
H          2.54116       -1.69399       -4.00733
C          2.76255       -1.13614        1.89101
C          2.33252       -2.50416        1.95082
C          3.05982       -0.42402        3.09719
C          1.80562       -3.29060        0.75767
C          2.32077       -3.15508        3.20385
H          0.88472       -3.81904        1.04341
H          2.52248       -4.05717        0.42726
H          1.56139       -2.65447       -0.09428
C          2.68574       -2.48716        4.39234
H          2.00785       -4.19695        3.26627
C          3.02315       -1.11962        4.32736
C          2.66034       -3.25711        5.67546
H          3.25439       -0.58440        5.24592
O          3.02090       -2.46717        6.77076
O          2.35779       -4.46801        5.78342
C          3.02061       -3.13318        8.09185
H          2.01677       -3.51024        8.33080
H          3.73330       -3.96929        8.10030
H          3.32392       -2.35136        8.79645
C          3.37393        1.06244        3.15084
H          2.71832        1.55272        3.88465
H          3.21045        1.56457        2.19745
H          4.41129        1.23792        3.47662
