101
/cluster/projects/nn2506k/marcof/RuC_BondLength/evolutionary_desing/RUN28052021044948/Gen026/M00000170_I_DFT.out	Energy: -1076507.3103650
Ru         0.15639        0.55841        0.03550
C         -0.33268       -0.01224        1.68863
C          2.03739        0.05161       -0.15255
Cl        -0.89649       -1.18228       -1.27000
Cl         0.44166        2.90965        0.50968
H          0.25283       -0.54161        2.44301
H         -1.38837        0.21614        1.95231
N          2.72100        0.31997       -1.33442
N          2.93757       -0.55910        0.71645
C          4.12051       -0.16720       -1.31603
C          2.20220        0.92338       -2.55423
C          4.34544       -0.67681        0.13695
H          4.80622        0.64769       -1.57911
H          4.25022       -0.96897       -2.05743
C          4.96787       -2.10456        0.17315
C          5.43662        0.14817        0.89009
C          6.48082       -1.88084       -0.09694
H          4.50463       -2.78532       -0.55177
H          4.82728       -2.53249        1.17378
C          6.78431       -0.41341        0.36308
H          7.09137       -2.61714        0.44543
H          6.71200       -2.00409       -1.16574
H          7.15909        0.18460       -0.48110
H          7.55845       -0.37734        1.14308
H          5.35173       -0.04477        1.96633
H          5.33162        1.22930        0.73240
C          2.30946        2.33390       -2.75396
C          1.69484        0.07908       -3.59009
C          3.04174        3.27000       -1.79784
C          1.75666        2.88252       -3.93520
C          4.40350        3.77851       -2.35749
H          2.40341        4.14107       -1.58937
H          3.20621        2.78475       -0.83069
C          5.13298        4.73081       -1.37924
H          5.05884        2.92062       -2.58872
H          4.23816        4.30085       -3.31425
C          6.48215        5.25268       -1.92177
H          5.30178        4.21135       -0.41902
H          4.47541        5.58753       -1.15042
H          7.17933        4.42427       -2.12789
H          6.96793        5.92660       -1.19835
H          6.34459        5.81337       -2.86025
C          1.15722        2.08665       -4.93399
H          1.79960        3.96472       -4.07340
C          0.50187        2.71524       -6.15652
C          1.16917        0.68543       -4.75237
C         -1.00805        3.03202       -5.94262
H          1.02269        3.64993       -6.42255
H          0.59927        2.03985       -7.02260
C         -1.67712        3.66704       -7.18472
H         -1.53728        2.10250       -5.67370
H         -1.11585        3.70969       -5.07908
C         -3.17498        3.98275       -6.97520
H         -1.56557        2.98635       -8.04758
H         -1.14294        4.59615       -7.45263
H         -3.74563        3.07001       -6.74082
H         -3.61741        4.43243       -7.87841
H         -3.32074        4.68949       -6.14274
H          0.75501        0.04315       -5.53207
C          1.76008       -1.43844       -3.52724
H          2.70982       -1.79802       -3.96104
H          0.94492       -1.88587       -4.10963
H          1.67621       -1.82235       -2.50787
C          2.65484       -1.05180        2.05389
C          2.83275       -0.19111        3.18133
C          2.21098       -2.40327        2.23754
C          3.13879        1.29612        3.07089
C          2.64256       -0.72528        4.47802
H          2.36069        1.87542        3.58970
H          3.16194        1.65112        2.03982
H          4.09957        1.54273        3.54949
C          2.25728       -2.06478        4.69527
H          2.77725       -0.06265        5.33589
C          2.09396       -2.62145        6.10389
C          2.02508       -2.87168        3.55940
C          3.39912       -3.25176        6.67329
H          1.76529       -1.82025        6.78589
H          1.30196       -3.38816        6.11232
C          3.22563       -3.81804        8.10286
H          3.73710       -4.05619        5.99813
H          4.19781       -2.49057        6.67442
C          4.51793       -4.44336        8.67360
H          2.42409       -4.57782        8.09910
H          2.88337       -3.01158        8.77531
H          4.86858       -5.27846        8.04616
H          4.35452       -4.83460        9.69020
H          5.33072       -3.70141        8.72742
H          1.66935       -3.89125        3.70894
C          1.81878       -3.31112        1.06927
C          2.35955       -4.76596        1.11279
H          0.71658       -3.35453        1.03469
H          2.11489       -2.85083        0.12180
C          1.92935       -5.59174       -0.12448
H          3.46011       -4.75616        1.18068
H          1.99940       -5.28167        2.01754
C          2.43969       -7.04941       -0.09512
H          2.29391       -5.09645       -1.04183
H          0.82781       -5.59151       -0.19596
H          3.54051       -7.08871       -0.05886
H          2.11454       -7.60157       -0.99092
H          2.05712       -7.58905        0.78623
