71
/cluster/projects/nn2506k/marcof/RuC_BondLength/evolutionary_desing/RUN28052021121055/Gen022/M00000163_I_DFT.out	Energy: -1048107.0710857
Ru         0.10106        0.85317       -0.09328
C         -0.41323        0.25517        1.54256
C          1.92649        0.20708       -0.27089
Cl        -1.27493       -0.56618       -1.47058
Cl         0.72138        3.14159        0.31510
H          0.05070       -0.54196        2.12711
H         -1.35781        0.68228        1.93951
N          2.59303        0.32029       -1.49618
N          2.85267       -0.24756        0.66083
C          4.12197        0.23367       -1.31428
C          1.92000        0.24765       -2.77825
C          4.20052       -0.63764        0.01637
C          4.68359        1.66648       -1.10957
C          4.81688       -0.40317       -2.53678
C          5.40317       -0.26853        0.91972
C          4.24642       -2.17089       -0.22654
H          5.40504        0.77810        1.23189
H          6.33487       -0.46434        0.37098
H          5.41879       -0.90055        1.81793
H          3.38161       -2.52964       -0.78624
H          4.28338       -2.69955        0.73381
H          5.16301       -2.43792       -0.76975
H          4.20427        2.17686       -0.26810
H          4.50599        2.26084       -2.00744
H          5.76767        1.63076       -0.93471
H          4.42686       -1.39250       -2.79200
H          5.89272       -0.49908       -2.33322
H          4.70968        0.25265       -3.41041
C          1.51520        1.35259       -3.59443
C          1.58135       -1.03508       -3.28154
C          0.80297        1.11111       -4.79749
C          1.85252        2.81867       -3.35314
C          0.49507       -0.18354       -5.26952
H          0.49026        1.96607       -5.39649
C         -0.30323       -0.39143       -6.54874
C          0.91075       -1.27616       -4.48256
C         -1.83431       -0.47544       -6.29472
H          0.02584       -1.31782       -7.04588
H         -0.10218        0.43323       -7.25081
H         -2.21234        0.44816       -5.83225
H         -2.08131       -1.30819       -5.62051
H         -2.37069       -0.62935       -7.24382
H          0.69330       -2.30533       -4.76533
C          0.70971        3.83139       -3.36316
O          3.04605        3.19779       -3.25724
H          0.54658        4.19279       -4.39273
H         -0.23016        3.40870       -2.99178
H          0.99600        4.69240       -2.74882
F          1.93192       -2.16814       -2.53158
C          2.68796       -0.29124        2.08903
C          2.37404       -1.47470        2.83573
C          2.95868        0.87049        2.85241
C          2.34244       -1.41984        4.25299
C          1.95751       -2.78244        2.18192
C          2.57124       -0.23056        4.98285
H          2.09586       -2.32455        4.80677
C          2.51679       -0.21055        6.50490
C          2.88464        0.93353        4.24999
C          3.90102       -0.44442        7.17070
H          1.81642       -0.98266        6.85989
H          2.11782        0.75720        6.84710
H          4.32062       -1.42171        6.88824
H          3.80633       -0.41890        8.26704
H          4.62314        0.33089        6.87440
H          3.08182        1.88577        4.74166
C          2.38758       -4.09771        2.84133
O          1.24337       -2.79560        1.14966
H          3.39414       -4.04524        3.27772
H          1.68400       -4.36967        3.64536
H          2.34523       -4.89399        2.08834
F          3.35077        2.03939        2.19402
