67
/cluster/projects/nn2506k/marcof/RuC_BondLength/evolutionary_desing/RUN28052021044948/Gen037/M00000226_I_DFT.out	Energy: -781418.9216321
Ru        -0.15147        0.13938        0.05435
C         -0.43169       -0.60682        1.68641
C          1.76967       -0.05756       -0.22005
Cl        -0.96612       -1.66539       -1.32795
Cl        -0.22543        2.47209        0.67555
H          0.29257       -1.07082        2.36020
H         -1.48803       -0.58388        2.03108
N          2.38800        0.38120       -1.39097
N          2.76656       -0.58901        0.58834
C          3.86092        0.15771       -1.39822
C          1.76996        0.99943       -2.55649
C          4.12174       -0.52143       -0.03681
H          4.39019        1.11599       -1.50052
H          4.14461       -0.47810       -2.24892
H          4.80175        0.06002        0.60246
H          4.53811       -1.53393       -0.14177
C          1.70633        2.42202       -2.63459
C          1.36780        0.17109       -3.64550
C          2.32903        3.30151       -1.55976
C          1.07458        3.01486       -3.76566
H          2.68087        2.71830       -0.70674
H          1.60873        4.02687       -1.16336
H          3.18436        3.86569       -1.96854
C          0.95858        4.53257       -3.86896
C          0.53952        2.19095       -4.79843
H          1.08739        4.88221       -4.90190
H          1.70666        5.04700       -3.25759
H         -0.03072        4.88207       -3.52594
C         -0.23850        2.82339       -5.94874
C          0.74058        0.78012       -4.76993
H          0.42037        3.09233       -6.79328
H         -0.75207        3.73933       -5.63427
H         -1.00458        2.14337       -6.33956
C          0.26954       -0.07838       -5.93962
H          0.81235       -1.02716       -6.00019
H          0.40268        0.43342       -6.90173
H         -0.80178       -0.32763       -5.84607
C          1.62796       -1.32849       -3.63671
H          2.00584       -1.67242       -2.67204
H          2.36443       -1.59927       -4.41225
H          0.71170       -1.89786       -3.83227
C          2.69496       -1.18695        1.90762
C          2.53827       -2.59965        2.01475
C          2.89785       -0.35994        3.05038
C          2.32788       -3.45700        0.77349
C          2.55557       -3.19265        3.31080
H          3.16634       -4.15530        0.61771
H          2.21986       -2.84975       -0.12717
H          1.41302       -4.06124        0.85666
C          2.39980       -4.70244        3.46765
C          2.71552       -2.37496        4.46865
H          2.55249       -5.23610        2.52516
H          1.39225       -4.97002        3.82977
H          3.11980       -5.10864        4.19197
C          2.68266       -3.00989        5.85559
C          2.91072       -0.96788        4.33953
H          2.05521       -3.90816        5.87992
H          2.28861       -2.32030        6.61112
H          3.69224       -3.31063        6.18710
C          3.12928       -0.11854        5.58806
H          2.18720        0.03606        6.14168
H          3.52711        0.87261        5.35211
H          3.83500       -0.59610        6.28227
C          3.07099        1.14589        2.90256
H          2.33865        1.69327        3.51311
H          2.92332        1.47352        1.87196
H          4.07342        1.47044        3.22620
