83
/cluster/projects/nn2506k/marcof/RuC_BondLength/evolutionary_desing/RUN28052021121055/Gen026/M00000184_I_DFT.out	Energy: -1133791.4215532
Ru         0.16672        0.04148       -0.47603
C         -0.27177       -0.72590        1.12738
C          2.10826        0.06395       -0.33033
Cl        -0.39627       -1.87840       -1.88162
Cl        -0.62495        2.28043        0.20090
H          0.39209       -1.05019        1.93451
H         -1.35154       -0.86204        1.33868
N          2.87343        1.24803       -0.35273
N          3.03098       -1.00021       -0.32750
C          4.33559        0.95288       -0.11971
C          2.48542        2.63473       -0.53795
C          5.43738        1.76713       -0.81900
C          4.42975       -0.50190       -0.57849
H          4.51475        1.00046        0.96268
C          6.79870        1.16146       -0.35790
H          5.39918        2.83057       -0.54864
H          5.33420        1.70208       -1.91367
C          6.89965       -0.38044       -0.53816
H          6.95219        1.40957        0.70620
H          7.61702        1.64791       -0.91250
C          5.67716       -1.15791        0.03730
H          7.00248       -0.61305       -1.61223
H          7.82000       -0.74159       -0.05189
H          5.75646       -2.22081       -0.22970
H          5.64763       -1.09227        1.13071
H          4.58046       -0.50915       -1.66930
C          2.10047        3.04146       -1.86258
C          2.70435        3.64215        0.46418
C          2.11107        4.39736       -2.25371
C          1.52936        2.08012       -2.84996
C          2.49526        5.35198       -1.30997
H          1.82691        4.67607       -3.26353
C          2.74910        4.99195        0.01435
Cl         2.61097        7.09862       -1.79952
H          2.97260        5.78224        0.72325
O          1.80587        2.43149       -4.16237
O          0.79828        1.09452       -2.58127
C          1.11168        1.66053       -5.22653
H          1.42698        2.14073       -6.15858
H          1.42077        0.60898       -5.19673
H          0.02369        1.72567       -5.09228
C          2.83163        3.47777        2.02466
C          1.84626        4.49923        2.70128
C          2.41379        2.09000        2.58128
C          4.28751        3.80640        2.49011
H          1.85115        4.33167        3.78825
H          0.82232        4.34790        2.33517
H          2.12108        5.54951        2.54052
H          2.41048        2.14771        3.68042
H          3.09473        1.28312        2.31326
H          1.40383        1.82621        2.25210
H          5.01505        3.07899        2.10517
H          4.34025        3.77892        3.58880
H          4.60747        4.80728        2.16612
C          2.76911       -2.42094       -0.18851
C          2.56392       -2.90671        1.15117
C          2.77083       -3.35470       -1.29029
C          2.25735       -4.26202        1.41070
C          2.78464       -2.06709        2.38095
C          2.24207       -5.14791        0.33551
H          2.06735       -4.59505        2.42550
C          2.51575       -4.71636       -0.96211
Cl         1.88471       -6.90521        0.63145
H          2.50953       -5.46099       -1.74801
O          1.93321       -2.46414        3.42005
O          3.64548       -1.17491        2.54322
C          2.13565       -1.81518        4.73611
H          3.15319       -2.00467        5.10478
H          1.96993       -0.73264        4.65959
H          1.38837       -2.28026        5.38752
C          3.10717       -3.13266       -2.82024
C          4.62241       -3.47857       -3.02673
C          2.27016       -4.11108       -3.72030
C          2.81718       -1.72331       -3.40736
H          4.86150       -4.48487       -2.65328
H          5.28346       -2.76433       -2.52013
H          4.86201       -3.45237       -4.10053
H          2.38669       -3.81063       -4.77113
H          1.20325       -4.06056       -3.47022
H          2.60379       -5.15606       -3.66182
H          1.75222       -1.48978       -3.34184
H          3.11258       -1.72831       -4.46790
H          3.37430       -0.91799       -2.92954
