83
/cluster/projects/nn2506k/marcof/RuC_BondLength/evolutionary_desing/RUN28052021044948/Gen019/M00000135_I_DFT.out	Energy: -928584.9768065
Ru         0.15493        0.51770        0.20731
C         -0.27432       -0.11101        1.85605
C          2.03767        0.05146       -0.05361
Cl        -0.89992       -1.20860       -1.11564
Cl         0.39855        2.85953        0.74840
H          0.34319       -0.64788        2.57896
H         -1.32698        0.08598        2.15473
N          2.68257        0.36726       -1.24711
N          2.97101       -0.57663        0.76653
C          4.07428       -0.14105       -1.29832
C          2.11361        1.00982       -2.42458
C          4.36350       -0.64715        0.14350
H          4.75824        0.66012       -1.59992
H          4.15346       -0.95027       -2.03918
C          5.03541       -2.05175        0.15334
C          5.44789        0.21323        0.86715
C          6.52899       -1.77317       -0.16736
H          4.57249       -2.74665       -0.55807
H          4.94452       -2.48731        1.15660
C          6.79933       -0.30258        0.30313
H          7.18375       -2.49576        0.34075
H          6.72379       -1.87338       -1.24585
H          7.13891        0.31590       -0.54107
H          7.58861       -0.25329        1.06709
H          5.39878        0.01676        1.94478
H          5.30261        1.29032        0.71406
C          2.18050        2.43201       -2.56804
C          1.57532        0.19794       -3.46991
C          2.93983        3.33399       -1.59924
C          1.54397        3.01427       -3.69014
C          4.37896        3.74707       -2.05359
H          2.35598        4.24989       -1.42630
H          3.01668        2.84585       -0.62333
C          4.47059        4.80206       -3.18262
H          4.89251        4.15374       -1.16375
H          4.94938        2.85306       -2.35837
C          5.92385        5.23534       -3.48202
H          3.87947        5.68977       -2.89652
H          4.01748        4.40628       -4.10451
H          6.40196        5.67666       -2.59255
H          5.95598        5.98722       -4.28646
H          6.53883        4.37844       -3.80210
C          0.91778        2.24418       -4.69367
H          1.53480        4.10133       -3.77410
C          0.19082        2.90615       -5.85219
C          0.98026        0.83821       -4.58035
H         -0.86719        3.08553       -5.59612
H          0.20469        2.27754       -6.75428
H          0.63286        3.88001       -6.10787
H          0.54316        0.21840       -5.36539
C          1.67074       -1.31946       -3.47406
H          2.61064       -1.64170       -3.95574
H          0.84340       -1.75800       -4.04580
H          1.62981       -1.74727       -2.46957
C          2.73684       -1.11544        2.09534
C          2.92962       -0.28804        3.24405
C          2.32826       -2.48223        2.24786
C          3.19733        1.20909        3.17588
C          2.79026       -0.86784        4.52873
H          2.40697        1.75279        3.71450
H          3.20648        1.59513        2.15596
H          4.15359        1.46570        3.65808
C          2.44057       -2.22131        4.71200
H          2.93940       -0.23085        5.40307
C          2.32288       -2.82637        6.10131
C          2.19123       -2.99729        3.55778
H          2.20725       -2.05293        6.87320
H          3.22275       -3.41223        6.35450
H          1.46293       -3.50879        6.17378
H          1.86475       -4.02972        3.68383
C          1.92523       -3.36194        1.06195
C          2.50450       -4.80246        1.04259
H          0.82395       -3.43341        1.05735
H          2.18161       -2.86331        0.12227
C          2.06504       -5.59731       -0.21159
H          3.60571       -4.76547        1.08437
H          2.18061       -5.35765        1.93763
C          2.61409       -7.04075       -0.24484
H          2.39332       -5.06157       -1.11990
H          0.96242       -5.62448       -0.25636
H          3.71613       -7.05136       -0.23680
H          2.28101       -7.57102       -1.15088
H          2.26833       -7.61992        0.62654
