50
/cluster/projects/nn2506k/marcof/RuC_BondLength/evolutionary_desing/RUN28052021121055/Gen019/M00000147_I_DFT.out	Energy: -657400.7988335
Ru         0.12228        0.66077        0.33288
C         -0.16292       -0.05920        1.97690
C          2.00462        0.28375        0.10434
Cl        -0.69049       -1.01636       -1.20942
Cl         0.31662        2.96294        1.02950
H          0.58615       -0.42946        2.68618
H         -1.21552       -0.06057        2.32948
N          2.85390       -0.58656        0.78199
N          2.77715        0.96362       -0.82984
C          4.27938       -0.29736        0.46099
C          2.54264       -1.71365        1.61751
C          4.21646        0.45120       -0.89914
H          4.84416       -1.23333        0.40763
H          4.72441        0.34029        1.24177
C          4.38673       -0.50749       -2.12007
C          5.25293        1.60221       -0.98054
C          5.83976       -1.01679       -2.29326
H          3.69488       -1.35809       -2.01851
H          4.09300        0.03788       -3.02913
C          6.85762        0.14568       -2.34185
H          6.10654       -1.70193       -1.47057
H          5.89903       -1.61359       -3.21804
C          6.70364        1.07395       -1.11487
H          6.70094        0.73243       -3.26371
H          7.88438       -0.25209       -2.39006
H          7.38820        1.93358       -1.20026
H          7.00106        0.53155       -0.20097
H          5.15965        2.24807       -0.09406
H          5.02975        2.22455       -1.85895
C          3.20855       -1.86169        2.86031
C          1.64610       -2.71986        1.17945
C          2.97336       -2.99968        3.65903
H          3.89174       -1.08683        3.20939
C          2.06768       -3.99505        3.23204
H          3.48869       -3.10086        4.61575
C          1.40547       -3.84515        1.99328
H          1.88245       -4.87297        3.85269
H          0.70542       -4.60896        1.65065
H          1.13365       -2.61099        0.22671
C          2.23785        1.87141       -1.82655
C          1.51229        1.36206       -2.93100
C          2.45937        3.26429       -1.71692
C          1.01489        2.24237       -3.91485
H          1.31958        0.29426       -3.00693
C          1.24853        3.62981       -3.81152
H          0.44316        1.84127       -4.75309
C          1.97044        4.13682       -2.70857
H          0.86132        4.30945       -4.57246
H          2.13266        5.21089       -2.60677
H          2.97061        3.65932       -0.84177
