82
/cluster/projects/nn2506k/marcof/RuC_BondLength/evolutionary_desing/RUN28052021121055/Gen019/M00000144_I_DFT.out	Energy: -1091458.7566520
Ru         0.13714        0.36332        0.05358
C         -0.21968       -0.30749        1.70398
C          2.02694       -0.02782       -0.27734
Cl        -1.06604       -1.31279       -1.20854
Cl         0.37092        2.68674        0.69269
H          0.43074       -0.86245        2.38223
H         -1.25809       -0.12096        2.05354
N          2.59688        0.32356       -1.50944
N          3.03495       -0.52093        0.54050
C          4.08214        0.34658       -1.41548
C          1.85163        0.89697       -2.63675
C          4.43169       -0.53936       -0.14731
C          4.85020        0.05329       -2.72700
H          4.39450        1.37610       -1.20366
C          5.56950        0.11970        0.71361
C          4.88421       -2.00484       -0.52028
C          5.75171        1.65563        0.73247
H          5.45324       -0.24993        1.73921
H          6.51599       -0.30448        0.34984
H          6.46608        1.91582        1.52902
H          4.82792        2.20986        0.93454
H          6.18423        2.03126       -0.20643
C          5.52815       -2.88972        0.57756
H          4.03749       -2.53315       -0.96980
H          5.64149       -1.91734       -1.30793
H          5.72154       -3.88557        0.14803
H          4.89850       -3.02445        1.46064
H          6.49765       -2.49425        0.90962
F          4.57284       -1.15666       -3.38460
F          4.65371        1.07447       -3.68185
F          6.25418        0.06166       -2.46966
C          1.79214        2.31304       -2.80244
C          1.27577        0.00885       -3.59442
C          2.54142        3.26359       -1.88166
C          1.04037        2.84529       -3.88781
H          2.79853        2.80281       -0.92732
H          1.93500        4.14109       -1.63389
H          3.46630        3.62305       -2.36502
C          0.99039        4.35609       -4.09557
C          0.34163        1.97195       -4.77079
H          0.76035        4.62095       -5.13326
H          1.95009        4.82830       -3.85124
H          0.22598        4.82970       -3.45518
C         -0.58159        2.54889       -5.84042
C          0.50514        0.56099       -4.65866
H         -0.03674        2.79158       -6.76958
H         -1.06734        3.47037       -5.49711
H         -1.38012        1.84731       -6.10572
C         -0.15561       -0.36290       -5.67679
H          0.35020       -1.33093       -5.74460
H         -0.15528        0.07260       -6.68426
H         -1.20555       -0.56820       -5.40506
C          1.47602       -1.49654       -3.52045
H          0.51594       -2.02466       -3.51338
H          2.01516       -1.79333       -2.62111
H          2.05613       -1.85083       -4.38666
C          2.80985       -1.18735        1.82446
C          2.37392       -2.55015        1.85273
C          3.02500       -0.46321        3.03669
C          1.93058       -3.28800        0.59723
C          2.28589       -3.21940        3.10875
H          1.85269       -2.63169       -0.26747
H          0.93216       -3.72229        0.74350
H          2.60988       -4.11577        0.34227
C          1.86138       -4.68394        3.16742
C          2.58804       -2.53009        4.31997
H          2.00800       -5.19966        2.21367
H          0.79328       -4.78528        3.42763
H          2.43009       -5.23783        3.92571
C          2.47223       -3.26860        5.64986
C          2.95209       -1.15381        4.28434
H          1.58896       -3.92053        5.67216
H          2.38963       -2.58614        6.50089
H          3.35038       -3.91253        5.83087
C          3.25484       -0.41248        5.58437
H          3.75017        0.54664        5.40980
H          3.91621       -1.00221        6.23466
H          2.33709       -0.20281        6.15979
C          3.21055        1.04724        3.03177
H          4.22122        1.35353        3.33975
H          2.50486        1.51705        3.73122
H          3.00491        1.47156        2.05004
