85
/cluster/projects/nn2506k/marcof/RuC_BondLength/evolutionary_desing/RUN28052021044732/Gen029/M00000188_I_DFT.out	Energy: -929325.5241181
Ru         0.07116        0.44571        0.19893
C         -0.32831       -0.24521        1.82974
C          1.97987        0.10168       -0.07894
Cl        -0.99779       -1.24724       -1.15601
Cl         0.27342        2.76937        0.85986
H          0.30988       -0.78665        2.53093
H         -1.38139       -0.08138        2.14618
N          2.59569        0.46877       -1.28036
N          2.96031       -0.38086        0.77845
C          4.12458        0.51769       -1.13423
C          1.89350        0.69565       -2.55290
C          4.34188       -0.46923        0.09789
C          4.57456        1.97154       -0.81049
C          4.86009        0.09348       -2.42675
C          5.48898       -0.04176        1.04764
C          4.65059       -1.93328       -0.32180
H          5.36173        0.95937        1.46044
H          6.44129       -0.06896        0.49926
H          5.57118       -0.74864        1.88288
H          3.91538       -2.34444       -1.01562
H          4.68444       -2.56986        0.56813
H          5.63920       -1.98558       -0.79724
H          4.05183        2.38661        0.05679
H          4.38260        2.61655       -1.67039
H          5.65473        2.00459       -0.61754
H          4.61967       -0.91914       -2.75419
H          5.94570        0.15214       -2.26371
H          4.61241        0.78174       -3.24478
C          1.52571        2.00658       -3.00516
C          1.59162       -0.44122       -3.37919
C          1.75568        3.31252       -2.24516
C          0.85025        2.12815       -4.24706
C          2.61984        4.36548       -2.99847
H          0.77191        3.76707       -2.04902
H          2.18083        3.12315       -1.25981
C          2.81299        5.66714       -2.18262
H          3.60678        3.94133       -3.25044
H          2.14816        4.61855       -3.96168
C          3.64607        6.73641       -2.92380
H          3.29696        5.42985       -1.21939
H          1.82304        6.08519       -1.93016
H          4.65651        6.36512       -3.16046
H          3.75891        7.64575       -2.31240
H          3.16779        7.02924       -3.87244
C          0.54650        1.03025       -5.07062
H          0.53975        3.12399       -4.56539
C         -0.21221        1.19898       -6.37582
C          0.93771       -0.24517       -4.61371
H         -1.27806        0.94759       -6.24370
H          0.18100        0.53650       -7.16162
H         -0.16151        2.23258       -6.74568
H          0.70210       -1.12238       -5.21925
C          1.91809       -1.87882       -3.00784
H          1.19034       -2.55744       -3.46956
H          1.87151       -2.04806       -1.93215
H          2.91515       -2.17441       -3.37154
C          2.77974       -0.85861        2.14459
C          2.42275       -2.22600        2.40505
C          2.98402        0.04159        3.23794
C          1.94121       -3.19916        1.32432
C          2.37494       -2.66314        3.75082
C          2.56772       -4.62054        1.33960
H          0.84997       -3.31226        1.44686
H          2.07092       -2.75997        0.33353
C          2.01098       -5.52496        0.21257
H          3.66399       -4.55279        1.24454
H          2.37442       -5.11198        2.30657
C          2.60060       -6.95262        0.22765
H          2.21214       -5.05856       -0.76762
H          0.91220       -5.58245        0.30251
H          3.69557       -6.93589        0.10371
H          2.18112       -7.56318       -0.58737
H          2.37980       -7.46665        1.17706
C          2.64827       -1.81303        4.84352
H          2.08950       -3.69550        3.95314
C          2.62827       -2.33458        6.27068
C          2.92373       -0.46029        4.55999
H          2.41726       -1.53340        6.99293
H          3.60318       -2.77322        6.54386
H          1.87088       -3.12065        6.40489
H          3.08131        0.23762        5.38489
C          3.20772        1.53814        3.07933
H          2.53251        2.08656        3.75181
H          3.00229        1.89217        2.06923
H          4.23600        1.82068        3.35599
