95
/cluster/projects/nn2506k/marcof/RuC_BondLength/evolutionary_desing/RUN28052021044732/Gen027/M00000174_I_DFT.out	Energy: -1048043.9474986
Ru         0.06143        0.46431        0.16209
C         -0.32592       -0.15364        1.82479
C          1.97793        0.13959       -0.09323
Cl        -0.98633       -1.31760       -1.10028
Cl         0.21505        2.82093        0.72888
H          0.32850       -0.64172        2.55001
H         -1.38244        0.00023        2.13577
N          2.58939        0.47972       -1.30370
N          2.95817       -0.31244        0.78030
C          4.11852        0.53877       -1.15758
C          1.88029        0.66863       -2.57588
C          4.33905       -0.41334        0.09928
C          4.56191        2.00250       -0.87091
C          4.85426        0.08594       -2.43981
C          5.48446        0.04026        1.03837
C          4.64973       -1.88769       -0.28169
H          5.35576        1.05288        1.42193
H          6.43851       -0.00298        0.49371
H          5.56171       -0.64190        1.89436
H          3.91356       -2.31702       -0.96367
H          4.68348       -2.49954        0.62548
H          5.63814       -1.95252       -0.75647
H          4.03635        2.43604       -0.01431
H          4.36660        2.62431       -1.74703
H          5.64194        2.04599       -0.67813
H          4.62386       -0.93856       -2.73625
H          5.94003        0.16209       -2.28409
H          4.59233        0.74646       -3.27611
C          1.50251        1.96122       -3.07440
C          1.57151       -0.48587       -3.37509
C          1.73913        3.29117       -2.35580
C          0.81648        2.05532       -4.30560
C          2.60619        4.31718       -3.14161
H          0.75880        3.75555       -2.16745
H          2.16793        3.12775       -1.36737
C          2.81479        5.63892       -2.36266
H          3.58805        3.87846       -3.38864
H          2.13043        4.54770       -4.10863
C          3.64906        6.68303       -3.13786
H          3.30495        5.42374       -1.39741
H          1.82972        6.07021       -2.11301
H          4.65480        6.29817       -3.37304
H          3.77355        7.60734       -2.55145
H          3.16510        6.95443       -4.09015
C          0.50025        0.92796       -5.10836
H          0.50599        3.04619       -4.62461
N         -0.18213        1.05287       -6.32604
C          0.90490       -0.33944       -4.60436
C         -0.64919        2.36898       -6.78105
C         -0.58181       -0.14519       -7.07712
H         -1.12952        2.26834       -7.76146
H          0.18742        3.07936       -6.89278
H         -1.38547        2.81539       -6.08776
H         -1.26661       -0.79098       -6.49840
H          0.29194       -0.75150       -7.37112
H         -1.09928        0.15500       -7.99587
H          0.66934       -1.24559       -5.15614
C          1.91544       -1.91173       -2.97045
H          1.20457       -2.61321       -3.42414
H          1.85912       -2.05778       -1.89159
H          2.92177       -2.19780       -3.31549
C          2.78102       -0.74442        2.15980
C          2.43530       -2.10152        2.47852
C          2.97015        0.18836        3.22899
C          1.95697       -3.11477        1.43181
C          2.38891       -2.50135        3.83105
C          2.58770       -4.53266        1.49261
H          0.86571       -3.22585        1.55398
H          2.08892       -2.70767        0.42768
C          2.04725       -5.46970        0.38441
H          3.68488       -4.46301        1.40872
H          2.38517       -4.99937        2.47029
C          2.63894       -6.89536        0.44577
H          2.26022       -5.02980       -0.60541
H          0.94743       -5.52653        0.46141
H          3.73549       -6.87940        0.33602
H          2.23160       -7.52898       -0.35791
H          2.40663       -7.38409        1.40591
C          2.66456       -1.61300        4.90945
H          2.09687       -3.52496        4.04376
N          2.65596       -2.04706        6.24227
C          2.91588       -0.25482        4.56623
C          2.32415       -3.44036        6.56820
C          2.84718       -1.08471        7.33592
H          2.99647       -4.14623        6.05250
H          1.28385       -3.70101        6.29881
H          2.44065       -3.60162        7.64634
H          2.04525       -0.32481        7.37170
H          3.81191       -0.55731        7.24698
H          2.84782       -1.61591        8.29490
H          3.05372        0.49095        5.34569
C          3.17798        1.68222        3.01626
H          2.53153        2.24974        3.70085
H          2.92435        2.00112        2.00500
H          4.21645        1.97909        3.23376
