67
/cluster/projects/nn2506k/marcof/RuC_BondLength/evolutionary_desing/RUN28052021121055/Gen009/M00000094_I_DFT.out	Energy: -781418.9146228
Ru        -0.17169        0.04550       -0.04599
C         -0.49937       -0.74930        1.55399
C          1.76071       -0.11742       -0.25510
Cl        -0.91217       -1.72967       -1.50603
Cl        -0.29951        2.35880        0.63597
H          0.20716       -1.22183        2.24057
H         -1.56751       -0.75009        1.86093
N          2.41461        0.36307       -1.38975
N          2.73566       -0.65555        0.57533
C          3.89030        0.16290       -1.34789
C          1.82966        1.00068       -2.56191
C          4.11210       -0.54685        0.00480
H          4.21554       -0.44631       -2.20322
H          4.40696        1.13165       -1.40630
H          4.75586        0.03006        0.68445
H          4.55168       -1.54843       -0.10972
C          1.74518        2.42361       -2.60729
C          1.48154        0.19372       -3.68512
C          2.31266        3.28539       -1.48843
C          1.14598        3.03475       -3.74631
H          2.64137        2.68645       -0.63709
H          1.56628        3.98949       -1.10204
H          3.17351        3.87268       -1.85043
C          1.00903        4.55259       -3.81676
C          0.66286        2.22876       -4.81806
H          1.72515        5.06299       -3.16507
H          0.00198        4.87810       -3.50305
H          1.17074        4.92995       -4.83523
C         -0.08258        2.87772       -5.98066
C          0.88577        0.82093       -4.81663
H         -0.62242        3.77736       -5.66314
H         -0.82244        2.19593       -6.41634
H          0.60242        3.17805       -6.79324
C          0.47143       -0.01495       -6.02357
H          1.02847       -0.95532       -6.08546
H          0.63465        0.52150       -6.96749
H         -0.59934       -0.27937       -5.97748
C          1.76586       -1.30142       -3.70347
H          2.11654       -1.66314       -2.73502
H          2.53258       -1.54157       -4.45951
H          0.86617       -1.87996       -3.94398
C          2.62493       -1.29531        1.87210
C          2.48582       -2.71276        1.92980
C          2.77382       -0.50177        3.04645
C          2.33465       -3.53388        0.65583
C          2.46426       -3.34572        3.20677
H          3.18631       -4.21884        0.51318
H          2.25623       -2.90076       -0.22993
H          1.42384       -4.14926        0.68378
C          2.32372       -4.86152        3.31145
C          2.57101       -2.56266        4.39431
H          2.51428       -5.36343        2.35852
H          1.30848       -5.15263        3.63141
H          3.02485       -5.28146        4.04643
C          2.49799       -3.24107        5.75895
C          2.75039       -1.14976        4.31580
H          1.88343       -4.14814        5.73295
H          2.06707       -2.58087        6.52061
H          3.49941       -3.53825        6.11730
C          2.91282       -0.33705        5.59687
H          1.94915       -0.20889        6.11923
H          3.30820        0.66478        5.40604
H          3.59758       -0.82854        6.30217
C          2.92802        1.01039        2.95155
H          2.16962        1.52712        3.55691
H          2.80578        1.36873        1.92783
H          3.91526        1.33902        3.31542
