88
/cluster/projects/nn2506k/marcof/RuC_BondLength/evolutionary_desing/RUN28052021121055/Gen009/M00000091_I_DFT.out	Energy: -953957.6605583
Ru         0.11149        0.28647       -0.09572
C         -0.31249       -0.40552        1.52921
C          2.04039       -0.03256       -0.33530
Cl        -0.90312       -1.46803       -1.43315
Cl         0.14101        2.61300        0.60254
H          0.32812       -0.90247        2.26047
H         -1.38274       -0.29022        1.80755
N          2.66179        0.34724       -1.52405
N          3.00418       -0.54549        0.51624
C          4.17731        0.34948       -1.40415
C          1.90031        0.93539       -2.62607
C          4.41346       -0.61310       -0.15568
C          5.00256        0.06921       -2.71938
H          4.45713        1.36525       -1.09264
C          5.54590       -0.10264        0.80658
C          4.72633       -2.09826       -0.59679
C          5.85909        1.40817        0.92527
H          5.32514       -0.50109        1.80498
H          6.47825       -0.59578        0.50184
H          6.53700        1.56261        1.77994
H          4.97307        2.02754        1.09859
H          6.37512        1.79711        0.03769
C          5.37207       -3.07169        0.42296
H          3.80314       -2.54042       -0.98378
H          5.41027       -2.05725       -1.45044
H          5.40564       -4.07899       -0.02248
H          4.82180       -3.14300        1.36555
H          6.40920       -2.79518        0.65961
C          6.54046        0.06279       -2.45905
C          4.77967        1.11606       -3.84971
H          4.71314       -0.91424       -3.11635
H          6.87113       -0.63240       -1.68162
H          6.89517        1.06753       -2.18582
H          7.05642       -0.22049       -3.38866
H          3.77686        1.09075       -4.27759
H          5.49227        0.91600       -4.66476
H          4.97452        2.13759       -3.49017
C          1.73536        2.35045       -2.70756
C          1.38400        0.07023       -3.63802
C          2.44425        3.29603       -1.75049
C          0.92527        2.88928       -3.74859
H          2.81648        2.78362       -0.86321
H          1.77233        4.08191       -1.39119
H          3.29589        3.78705       -2.25249
C          0.74216        4.40057       -3.84791
C          0.28506        2.02191       -4.68029
H          0.47332        4.71894       -4.86115
H          1.65910        4.93772       -3.57523
H         -0.05085        4.75479       -3.16657
C         -0.69880        2.59091       -5.69918
C          0.56354        0.62361       -4.66253
H         -0.18972        2.95898       -6.60731
H         -1.26600        3.43156       -5.28082
H         -1.43014        1.84032       -6.01808
C         -0.03613       -0.28433       -5.73170
H         -0.06968        0.20526       -6.71386
H         -1.06865       -0.57370       -5.47049
H          0.53199       -1.21199       -5.85232
C          1.72647       -1.41155       -3.66178
H          2.29385       -1.70632       -2.77859
H          2.33098       -1.65611       -4.55148
H          0.82286       -2.03114       -3.68783
C          2.74467       -1.15648        1.81917
C          2.32488       -2.52300        1.90828
C          2.91202       -0.37107        3.00239
C          1.84876       -3.29997        0.68821
C          2.28196       -3.14858        3.19001
H          1.80230       -2.68121       -0.20560
H          0.82521       -3.66697        0.84927
H          2.47931       -4.17653        0.47821
C          1.88746       -4.61675        3.32701
C          2.61923       -2.41191        4.36251
H          1.43096       -5.01778        2.41871
H          1.16972       -4.76687        4.14639
H          2.76503       -5.24740        3.55134
C          2.65486       -3.11277        5.71636
C          2.86657       -1.01267        4.27628
H          3.33843       -2.61780        6.41566
H          2.98053       -4.15615        5.62617
H          1.65877       -3.12654        6.19286
C          3.08412       -0.21165        5.55720
H          4.07076       -0.42703        6.00220
H          2.32997       -0.45613        6.31927
H          3.03770        0.86750        5.39030
C          3.03977        1.14308        2.92902
H          3.98250        1.50872        3.36082
H          2.21942        1.61761        3.48740
H          2.96059        1.50407        1.90516
