73
/cluster/projects/nn2506k/marcof/RuC_BondLength/evolutionary_desing/RUN28052021121055/Gen005/M00000073_I_DFT.out	Energy: -1204315.2817284
Ru        -0.05418        0.27777        0.03657
C         -0.48304       -0.79242        1.44086
C          1.84896        0.03023       -0.20682
Cl        -0.95282       -1.07729       -1.73979
Cl        -0.05742        2.37076        1.23829
H          0.16501       -1.42884        2.04585
H         -1.55915       -0.76889        1.71520
N          2.52197        0.65932       -1.27272
N          2.80477       -0.67403        0.53535
C          3.98616        0.42580       -1.23872
C          1.88747        1.18952       -2.49371
C          4.18239       -0.50102       -0.00037
C          4.86312        1.70807       -1.12922
H          4.31568       -0.05338       -2.16963
C          4.93613       -1.81381       -0.36941
H          4.82007       -0.03115        0.76010
F          4.25282       -2.63787       -1.28666
F          6.17931       -1.50551       -0.97208
F          5.23257       -2.59781        0.75776
F          4.57602        2.50138        0.00162
F          6.23111        1.35653       -1.02080
F          4.75848        2.52698       -2.26311
C          1.52281        2.56633       -2.56737
C          1.72810        0.31032       -3.60684
C          1.79918        3.54055       -1.43470
C          0.90158        3.04191       -3.76129
H          2.16919        3.04713       -0.53867
H          0.89076        4.07892       -1.13920
H          2.54592        4.28852       -1.74296
C          0.48500        4.50568       -3.87334
C          0.67463        2.15987       -4.85586
H          1.00621        5.14260       -3.15335
H         -0.59628        4.63064       -3.69020
H          0.69459        4.91002       -4.87258
C         -0.07066        2.65162       -6.09298
C          1.13786        0.81387       -4.79891
H         -0.69262        1.85941       -6.52754
H          0.62306        2.99216       -6.88149
H         -0.73605        3.49006       -5.86179
C          0.97811       -0.10314       -6.00688
H          1.77832       -0.85032       -6.06212
H          0.99640        0.45595       -6.94957
H          0.02287       -0.65529       -5.96901
C          2.14404       -1.15139       -3.54880
H          3.05255       -1.34023       -4.14576
H          1.35217       -1.79493       -3.94986
H          2.32936       -1.49478       -2.53211
C          2.64941       -1.30706        1.84788
C          2.27714       -2.68147        1.91760
C          2.95506       -0.54493        3.01241
C          1.87714       -3.46311        0.67363
C          2.23578       -3.31074        3.19618
H          1.77978       -2.82354       -0.20363
H          0.90549       -3.95656        0.81804
H          2.60877       -4.24957        0.43595
C          1.88015       -4.79037        3.30839
C          2.53315       -2.56360        4.37405
H          2.54185       -5.30712        4.01683
H          1.96652       -5.31153        2.35089
H          0.84611       -4.93655        3.66547
C          2.43669       -3.22797        5.74381
C          2.91156       -1.19255        4.28146
H          2.09459       -2.52423        6.51221
H          3.41554       -3.61780        6.07363
H          1.73675       -4.07028        5.74413
C          3.26848       -0.41759        5.54587
H          2.36599       -0.05312        6.06660
H          3.89101        0.45710        5.33321
H          3.82282       -1.04208        6.25822
C          3.28975        0.93804        2.93050
H          2.69967        1.50950        3.65897
H          3.06257        1.36630        1.95435
H          4.35241        1.13193        3.15236
