95
/cluster/projects/nn2506k/marcof/RuC_BondLength/evolutionary_desing/RUN28052021121055/Gen034/M00000223_I_DFT.out	Energy: -1245307.2820429
Ru         0.20146        0.86879       -0.09636
C         -0.33397        0.34769        1.55767
C          2.03072        0.21231       -0.28973
Cl        -1.20347       -0.60348       -1.39675
Cl         0.84016        3.16084        0.28820
H          0.10583       -0.42269        2.19302
H         -1.27859        0.80921        1.91598
N          2.66596        0.30489       -1.52984
N          2.96930       -0.22265        0.63359
C          4.21742        0.25670       -1.37652
C          1.92608        0.21765       -2.77724
C          4.32256       -0.63710       -0.02896
C          4.65874        1.75863       -1.18581
C          4.92412       -0.40686       -2.59622
C          5.56724       -0.22936        0.82706
C          4.26261       -2.20131       -0.19862
C          5.98334       -1.05823        2.07425
H          5.45947        0.81355        1.13694
H          6.42250       -0.25475        0.13741
C          7.26831       -0.48175        2.71662
H          6.17040       -2.10707        1.80684
H          5.19072       -1.06649        2.83171
H          7.12189        0.55893        3.04670
H          7.56579       -1.07288        3.59707
H          8.11260       -0.49102        2.00850
C          5.47893       -3.00113       -0.75213
H          3.37167       -2.46335       -0.77364
H          4.08645       -2.58482        0.81373
C          5.35760       -4.50680       -0.41413
H          6.42963       -2.62253       -0.34874
H          5.54781       -2.90552       -1.84207
H          5.36831       -4.68136        0.67405
H          4.42073       -4.92818       -0.81125
H          6.19289       -5.07668       -0.85121
C          6.15696        2.18466       -1.21641
H          4.20006        2.14341       -0.26753
H          4.17063        2.29794       -1.99992
C          6.28264        3.71560       -1.41654
H          6.70181        1.67910       -2.02745
H          6.67696        1.92132       -0.28643
H          5.76461        4.26308       -0.61345
H          7.33939        4.02837       -1.41048
H          5.83684        4.03393       -2.37073
C          5.02242        0.35758       -3.94507
H          4.45732       -1.37641       -2.79586
H          5.95317       -0.62240       -2.27268
C          5.85898       -0.43916       -4.97383
H          5.47511        1.34691       -3.80841
H          4.02662        0.53680       -4.36548
H          5.41541       -1.42711       -5.17878
H          5.91921        0.10312       -5.93044
H          6.88978       -0.60293       -4.61878
C          1.38894        1.30717       -3.54206
C          1.62858       -1.07459       -3.28343
C          0.61474        1.03508       -4.70007
C          1.63974        2.79455       -3.32038
C          0.36506       -0.26722       -5.18302
H          0.20304        1.87673       -5.25612
C         -0.49756       -0.50604       -6.41402
C          0.90047       -1.34079       -4.44507
C         -1.99879       -0.70969       -6.06672
H         -0.13437       -1.39403       -6.95566
H         -0.40318        0.34662       -7.10497
H         -2.41211        0.17162       -5.55485
H         -2.14065       -1.57427       -5.40242
H         -2.58251       -0.88033       -6.98452
H          0.72937       -2.37811       -4.73015
C          0.43826        3.73998       -3.33175
O          2.80641        3.25400       -3.24504
H          0.32750        4.18149       -4.33651
H         -0.49902        3.24386       -3.05773
H          0.63723        4.55871       -2.63118
F          2.07962       -2.20145       -2.57789
C          2.76394       -0.23366        2.05866
C          2.34931       -1.37744        2.82073
C          3.05109        0.93465        2.80627
C          2.25786       -1.28071        4.23323
C          1.89657       -2.68663        2.19267
C          2.51049       -0.08454        4.94328
H          1.94712       -2.15797        4.79860
C          2.32076       -0.00142        6.45181
C          2.91932        1.04015        4.19674
C          0.90238        0.48467        6.86009
H          3.06760        0.68449        6.88195
H          2.50220       -0.98961        6.90326
H          0.12374       -0.19723        6.48682
H          0.69290        1.48664        6.45736
H          0.81607        0.53310        7.95636
H          3.14677        1.99358        4.67277
C          2.21938       -3.99601        2.92253
O          1.23322       -2.70511        1.12740
H          3.19968       -3.97767        3.41710
H          1.45531       -4.20347        3.68968
H          2.18078       -4.81586        2.19519
F          3.52576        2.06993        2.14190
