97
/cluster/projects/nn2506k/marcof/RuC_BondLength/evolutionary_desing/RUN28052021121055/Gen037/M00000240_I_DFT.out	Energy: -1152447.7939044
Ru         0.11594        0.56559        0.11569
C         -0.34605       -0.04565        1.76040
C          1.99789        0.12144       -0.18497
Cl        -0.96210       -1.14106       -1.21652
Cl         0.45262        2.87744        0.76273
H          0.24580       -0.56013        2.51884
H         -1.40324        0.17273        2.02853
N          2.60523        0.47662       -1.39104
N          2.96308       -0.44195        0.62839
C          4.15402        0.46050       -1.26907
C          1.85273        0.64169       -2.62639
C          4.31911       -0.66153       -0.11506
C          4.54322        1.92638       -0.82330
C          4.86942        0.05439       -2.59365
C          5.56198       -0.39320        0.79373
C          4.30763       -2.16193       -0.59901
C          6.00779       -1.44374        1.84940
H          5.42563        0.56156        1.30785
H          6.41162       -0.25625        0.10942
C          7.25887       -0.95686        2.61921
H          6.24608       -2.40422        1.37318
H          5.20901       -1.64579        2.57194
H          7.05855       -0.01914        3.16135
H          7.57961       -1.70748        3.35848
H          8.10728       -0.77533        1.93935
C          5.55020       -2.80266       -1.28853
H          3.43566       -2.31891       -1.24058
H          4.12887       -2.74394        0.31148
C          5.48388       -4.34849       -1.24343
H          6.48774       -2.47532       -0.81623
H          5.61427       -2.50056       -2.34046
H          4.56051       -4.72117       -1.71430
H          6.33581       -4.79293       -1.78207
H          5.50851       -4.72756       -0.20949
C          6.02667        2.39442       -0.74310
H          4.05158        2.14109        0.13377
H          4.05977        2.57679       -1.55830
C          6.11961        3.93916       -0.69215
H          6.60760        2.03326       -1.60452
H          6.52253        1.99857        0.15094
H          5.55637        4.34272        0.16395
H          7.16640        4.26646       -0.58873
H          5.71300        4.40143       -1.60544
C          4.95033        1.05177       -3.78109
H          4.41829       -0.86887       -2.96854
H          5.90344       -0.19766       -2.31708
C          5.77325        0.45743       -4.94878
H          5.41525        1.99767       -3.47280
H          3.94899        1.29904       -4.15079
H          5.32112       -0.47343       -5.32672
H          5.82606        1.16633       -5.78984
H          6.80645        0.22730       -4.64123
C          1.34641        1.87886       -3.14379
C          1.57735       -0.51978       -3.39858
C          1.55167        3.24660       -2.49669
C          0.58240        1.84843       -4.34032
C          2.34694        4.25715       -3.36646
H          2.02434        3.14887       -1.51941
H          0.56058        3.68019       -2.29311
H          2.43499        5.21375       -2.82844
H          1.84653        4.46022       -4.32442
H          3.36174        3.90052       -3.59136
C          0.31164        0.67479       -5.07329
H          0.17568        2.79266       -4.70473
C         -0.56665        0.69827       -6.31685
C          0.84586       -0.53786       -4.58470
C         -2.06649        0.44248       -5.99969
H         -0.22030       -0.06482       -7.03238
H         -0.47061        1.67291       -6.82130
H         -2.46366        1.20833       -5.31722
H         -2.21052       -0.53651       -5.51982
H         -2.66335        0.46382       -6.92487
H          0.67342       -1.48885       -5.08683
F          2.06310       -1.76467       -2.95170
C          2.76098       -0.76100        2.02112
C          2.23657       -2.00745        2.49155
C          3.08675        0.21068        3.00124
C          1.67268       -3.08277        1.56051
C          2.13020       -2.20620        3.89308
C          2.21764       -4.51621        1.78298
H          1.81301       -2.79430        0.51658
H          0.57969       -3.10830        1.70659
H          3.30861       -4.56627        1.65791
H          1.76187       -5.20040        1.05098
H          1.97923       -4.90203        2.78466
C          2.48821       -1.23101        4.85077
H          1.72676       -3.15456        4.24834
C          2.31160       -1.48370        6.34308
C          2.96960        0.01185        4.37902
C          0.93902       -1.00025        6.88780
H          3.11280       -0.97486        6.90257
H          2.41664       -2.56040        6.54994
H          0.10722       -1.51788        6.38690
H          0.80579        0.08047        6.73111
H          0.86319       -1.19969        7.96792
H          3.24423        0.81876        5.05750
F          3.56556        1.46562        2.58275
