55
/cluster/projects/nn2506k/marcof/RuC_BondLength/evolutionary_desing/RUN28052021121055/Gen031/M00000210_I_DFT.out	Energy: -1198892.9318195
Ru        -0.14300        0.27947        0.33863
C         -0.59593       -1.48643        0.28191
C          1.75900        0.03963       -0.11628
Cl        -1.37418        1.11357       -1.55887
Cl        -0.20459        0.89763        2.65504
H          0.03436       -2.31073       -0.05718
H         -1.63576       -1.73021        0.57276
N          2.35468        0.33741       -1.34428
N          2.78279       -0.45495        0.70517
C          3.89938        0.22970       -1.33498
C          1.66487        0.67431       -2.56546
C          4.11567       -0.69456       -0.05255
C          4.53944        1.63759       -1.20416
C          4.45311       -0.38720       -2.64479
C          5.35301       -0.30284        0.79359
C          4.27512       -2.19791       -0.40933
H          5.33810        0.72984        1.14639
H          6.25730       -0.44325        0.18579
H          5.44838       -0.96702        1.66236
H          3.42469       -2.59362       -0.96710
H          4.40206       -2.79412        0.49895
H          5.18502       -2.33959       -1.00653
H          4.16969        2.19471       -0.34321
H          4.34729        2.22520       -2.10628
H          5.62953        1.54148       -1.11956
H          4.03405       -1.36551       -2.88554
H          5.54286       -0.49309       -2.55425
H          4.26971        0.28742       -3.49094
C          1.44329        2.01614       -3.01980
C          1.24101       -0.36078       -3.45051
C          1.63723        3.27932       -2.19194
C          0.93631        2.27579       -4.31261
F          1.73780        3.09352       -0.81005
F          0.57601        4.19009       -2.38782
F          2.81002        3.99983       -2.59332
C          0.59991        1.20645       -5.14303
H          0.75917        3.29328       -4.65159
C          0.71444       -0.12327       -4.72858
F          0.10187        1.47201       -6.42092
H          0.39696       -0.93803       -5.37442
Cl         1.31584       -2.10236       -2.96462
C          2.73128       -0.56794        2.14539
C          2.51037       -1.79152        2.85896
C          2.99700        0.58042        2.95679
C          2.19252       -3.15677        2.27151
C          2.58477       -1.84352        4.27211
F          1.86364       -3.21755        0.91646
F          1.11142       -3.77041        2.95341
F          3.29802       -4.05240        2.44264
C          2.87236       -0.68311        4.98803
H          2.40617       -2.77173        4.80893
C          3.07563        0.54507        4.35632
F          2.94872       -0.74797        6.38104
H          3.26382        1.44558        4.93521
Cl         3.21797        2.21790        2.23522
