71
/cluster/projects/nn2506k/marcof/RuC_BondLength/evolutionary_desing/RUN28052021044948/Gen002/M00000046_I_DFT.out	Energy: -941581.4139982
Ru        -0.17974       -0.11041       -0.00288
C         -0.37820        0.37613        1.73649
C          1.69150        0.28041       -0.36819
Cl        -0.20393       -2.50625        0.25746
Cl        -1.13016        1.74726       -1.17441
H          0.38835        0.66139        2.46079
H         -1.42087        0.33102        2.11482
N          2.63368        1.04360        0.32398
N          2.32086       -0.12951       -1.54537
C          3.99356        0.98043       -0.30917
C          2.54576        1.65678        1.62145
C          3.68718        0.44916       -1.71745
H          4.63601        0.29175        0.25397
H          4.45265        1.97590       -0.32199
H          4.38642       -0.33615       -2.01817
H          3.66296        1.24515       -2.47546
C          2.07557        2.98870        1.83794
C          3.00750        0.94860        2.76629
C          2.07195        3.51900        3.15674
C          1.53964        3.96225        0.78220
C          2.54306        2.81420        4.28288
H          1.67215        4.52173        3.26360
C          2.55141        3.40680        5.71763
C          3.01962        1.49874        4.05506
C          1.99103        4.85594        5.76230
C          1.66800        2.51447        6.64872
C          4.01812        3.43330        6.25698
H          2.01767        5.22656        6.79713
H          0.94681        4.90541        5.42130
H          2.58716        5.54774        5.14929
H          2.03613        1.48051        6.70475
H          0.62741        2.48389        6.29295
H          1.66639        2.92240        7.67056
H          4.46225        2.42901        6.30117
H          4.03771        3.85038        7.27495
H          4.66114        4.05925        5.62032
H          3.38892        0.88678        4.87434
C          2.05834        3.97205       -0.64682
O          0.69748        4.82435        1.14911
H          3.14882        3.85115       -0.68963
H          1.59197        3.16788       -1.22767
H          1.77677        4.92734       -1.10577
Cl         3.56880       -0.77587        2.61435
C          1.81100       -1.02816       -2.54611
C          1.96360       -2.44927       -2.44888
C          1.19498       -0.53103       -3.72187
C          1.38017       -3.28003       -3.43661
C          2.83375       -3.10463       -1.38763
C          0.68695       -2.77693       -4.56026
H          1.48300       -4.35253       -3.32012
C          0.01215       -3.68474       -5.62384
C          0.63208       -1.36939       -4.69677
C          0.63422       -3.39896       -7.02874
C          0.19112       -5.19775       -5.31500
C         -1.51970       -3.37322       -5.65496
H          0.15886       -4.03787       -7.78793
H          1.71417       -3.60997       -7.03336
H          0.49343       -2.35479       -7.34035
H         -0.25583       -5.47659       -4.34940
H          1.25014       -5.49672       -5.30994
H         -0.31195       -5.79098       -6.09193
H         -1.98111       -3.56658       -4.67530
H         -2.01923       -4.00975       -6.40064
H         -1.72307       -2.32656       -5.92010
H          0.15270       -0.90874       -5.55675
C          2.55941       -4.55079       -0.98310
O          3.82246       -2.49390       -0.89958
H          1.48843       -4.75122       -0.87126
H          2.97371       -5.24462       -1.73378
H          3.07029       -4.74337       -0.03274
Cl         1.14726        1.25208       -4.06161
