81
/cluster/projects/nn2506k/marcof/RuC_BondLength/evolutionary_desing/RUN28052021121055/Gen000/M00000046_I_DFT.out	Energy: -1239603.0350010
Ru         0.13084        0.14331       -0.08739
C         -0.24630       -0.25633        1.64472
C          2.06188       -0.00120       -0.23077
Cl        -0.38377       -1.93404       -1.18091
Cl        -0.15403        2.53247        0.01710
H          0.42731       -0.42669        2.48733
H         -1.33309       -0.29113        1.87180
N          2.74368        0.42725       -1.37754
N          3.01130       -0.56377        0.60868
C          4.22786        0.18105       -1.31845
C          2.26642        1.42104       -2.31486
C          4.77405       -0.63027       -2.52971
C          4.41343       -0.52551        0.05796
H          4.73117        1.15764       -1.30726
C          4.47596       -2.11158       -2.42641
H          4.38855       -0.19725       -3.46062
H          5.86793       -0.46649       -2.55078
C          4.63002       -2.72938       -1.23122
H          4.12543       -2.65159       -3.30727
C          5.10472       -1.91902       -0.04324
H          4.39919       -3.78659       -1.09656
H          4.98595       -2.46897        0.89789
H          6.18800       -1.71597       -0.13846
H          5.01720        0.10187        0.72937
C          1.57281        1.12327       -3.52476
C          2.57231        2.78115       -2.03942
C          1.23495       -0.29632       -3.96616
C          1.17219        2.20931       -4.34549
C          1.79534       -0.69095       -5.36272
H          1.58147       -1.01686       -3.22005
H          0.13851       -0.40189       -3.99486
C          1.38566       -2.12598       -5.77460
H          1.43765        0.01426       -6.13044
H          2.89572       -0.61135       -5.36138
C          1.94000       -2.54644       -7.15365
H          0.28435       -2.19807       -5.78616
H          1.72841       -2.84100       -5.00721
H          3.04183       -2.52401       -7.16826
H          1.58195       -1.87537       -7.95098
H          1.62354       -3.56932       -7.41148
C          1.47686        3.55004       -4.03169
H          0.60971        2.00500       -5.25214
C          2.20648        3.84473       -2.85577
C          1.06151        4.70034       -4.89662
H          2.44577        4.87038       -2.58464
O          0.30624        4.28560       -5.99496
O          1.34775        5.89966       -4.67983
C         -0.17091        5.35014       -6.90545
H         -0.81610        6.05491       -6.36350
H          0.67962        5.89475       -7.33795
H         -0.73372        4.81957       -7.68087
F          3.28558        3.07561       -0.86028
C          2.82815       -1.01262        1.96114
C          3.00519       -0.13056        3.07221
C          2.52763       -2.37242        2.22576
C          3.29136        1.35845        2.90631
C          2.86490       -0.66135        4.37688
C          4.70611        1.79968        3.38364
H          3.14800        1.66717        1.86523
H          2.54458        1.91915        3.49272
C          4.94066        3.31881        3.20202
H          4.84005        1.53524        4.44563
H          5.47984        1.24219        2.82834
C          6.33989        3.77863        3.66686
H          4.16931        3.87381        3.76378
H          4.79863        3.58690        2.14077
H          6.49927        3.56073        4.73508
H          6.46541        4.86334        3.52497
H          7.13819        3.27340        3.09945
C          2.56099       -2.02139        4.61003
H          2.97715       -0.00629        5.23925
C          2.38600       -2.89626        3.51322
C          2.42742       -2.48689        6.02851
H          2.14320       -3.94566        3.65411
O          2.11398       -3.84345        6.10428
O          2.57637       -1.76085        7.03750
C          1.95111       -4.41115        7.46199
H          2.88284       -4.30612        8.03433
H          1.13707       -3.90036        7.99397
H          1.70950       -5.46582        7.29336
F          2.35881       -3.25106        1.14959
