79
/cluster/projects/nn2506k/marcof/RuC_BondLength/evolutionary_desing/RUN28052021121055/Gen000/M00000042_I_DFT.out	Energy: -1004555.5500525
Ru        -0.09018       -0.37606       -0.28675
C         -0.36673       -0.79412        1.46004
C          1.83290       -0.20341       -0.43176
Cl        -0.39193       -2.58079       -1.22432
Cl        -0.83846        1.91536       -0.18431
H          0.36142       -0.87385        2.26931
H         -1.43046       -0.97480        1.72349
N          2.45811        0.25297       -1.59593
N          2.85784       -0.50471        0.49754
C          3.96557        0.36042       -1.45722
C          1.73477        1.01353       -2.62911
C          4.15596       -0.18510       -0.01824
C          4.94598       -0.18754       -2.58372
H          4.20068        1.43024       -1.39365
F          4.83960        0.82101        0.78960
F          5.04209       -1.30761        0.12754
C          4.85914       -1.71585       -2.84863
C          4.69316        0.57853       -3.91866
C          6.39916        0.18145       -2.13203
H          5.18316       -2.30500       -1.98474
H          5.51880       -1.97030       -3.69185
H          3.84648       -2.02955       -3.12039
H          4.70292        1.66897       -3.77402
H          3.74481        0.30956       -4.38980
H          5.49909        0.33191       -4.62542
H          6.70277       -0.33376       -1.21529
H          6.50952        1.26488       -1.97036
H          7.10160       -0.10717       -2.92738
C          1.69233        2.43601       -2.51964
C          1.13656        0.33320       -3.73050
C          2.29433        3.18031       -1.33528
C          1.02584        3.18331       -3.53004
H          2.51179        2.52318       -0.49236
H          1.59189        3.93397       -0.96066
H          3.22424        3.70702       -1.60920
C          0.99699        4.70565       -3.44583
C          0.35673        2.51507       -4.59536
H          1.90608        5.10777       -2.98307
H          0.14359        5.05736       -2.84019
H          0.90858        5.16863       -4.43535
C         -0.45298        3.32617       -5.60265
C          0.43290        1.09783       -4.70955
H         -0.99150        4.14754       -5.11256
H         -1.20147        2.71502       -6.11637
H          0.19068        3.77628       -6.37850
C         -0.23381        0.40006       -5.89232
H          0.11483       -0.62760       -6.02345
H         -0.04058        0.93006       -6.83547
H         -1.32871        0.35360       -5.76349
C          1.25794       -1.17181       -3.90509
H          0.27608       -1.64558       -4.02107
H          1.72764       -1.64585       -3.04551
H          1.85057       -1.41622       -4.80154
C          2.75887       -1.09328        1.83458
C          2.80382       -2.50982        1.96790
C          2.70193       -0.22167        2.96068
C          2.84918       -3.42517        0.75377
C          2.78553       -3.06690        3.28055
H          2.71507       -2.88123       -0.18075
H          2.05207       -4.17957        0.79840
H          3.81241       -3.95529        0.69545
C          2.84803       -4.57932        3.47134
C          2.71974       -2.21452        4.42133
H          1.85717       -4.99773        3.71888
H          3.52828       -4.85364        4.28925
H          3.19849       -5.09619        2.57361
C          2.65689       -2.82231        5.81933
C          2.70804       -0.79735        4.26442
H          3.66612       -2.96566        6.24375
H          2.16639       -3.80233        5.81628
H          2.10069       -2.18530        6.51683
C          2.70607        0.10407        5.49566
H          1.69490        0.21088        5.92584
H          3.06744        1.11163        5.26741
H          3.35263       -0.29770        6.28681
C          2.58170        1.28755        2.79876
H          3.51864        1.79718        3.06978
H          1.78601        1.68934        3.44174
H          2.34125        1.57249        1.77381
