62
/cluster/projects/nn2506k/marcof/RuC_BondLength/evolutionary_desing/RUN28052021121055/Gen000/M00000038_I_DFT.out	Energy: -1374807.9124392
Ru        -0.27814       -0.32237        0.02991
C         -0.56357        0.47888        1.64597
C          1.60425        0.09451       -0.02438
Cl        -0.33002       -2.69300        0.32339
Cl        -1.48552        1.09392       -1.47684
H          0.14558        1.14100        2.15232
H         -1.56326        0.34338        2.09985
N          2.29348        0.80812       -0.98965
N          2.59852       -0.28425        0.93812
C          3.78631        0.64901       -0.85223
C          1.74509        1.45915       -2.14466
C          3.88353        0.33648        0.66777
C          4.67900        1.74363       -1.41792
H          4.04106       -0.29818       -1.34954
Cl         5.36530       -0.77783        0.99838
Cl         4.19839        1.86350        1.75709
C          5.90705        1.37169       -2.01466
N          4.27619        3.04176       -1.32088
C          6.76473        2.38227       -2.49582
H          6.18956        0.32274       -2.09418
C          6.36123        3.72885       -2.38574
H          7.72059        2.12204       -2.95137
C          5.10571        4.00578       -1.80220
H          6.99067        4.54131       -2.74872
H          4.74139        5.03103       -1.71747
C          1.77650        0.76577       -3.37760
C          1.27316        2.80365       -2.14906
C          1.35154        1.31193       -4.58959
F          2.26082       -0.54736       -3.38699
C          0.88930        2.63852       -4.55407
H          1.37338        0.73620       -5.51103
N          0.43370        3.27107       -5.82774
C          0.84796        3.38272       -3.36409
O          0.01226        4.48336       -5.78098
O          0.49573        2.56611       -6.90107
H          0.48565        4.40470       -3.37962
C          1.17593        3.61547       -0.88412
O          1.20571        4.97911       -1.17656
O          1.05162        3.16753        0.26998
C          1.06190        5.89713       -0.02321
H          0.09455        5.73648        0.47203
H          1.87403        5.73104        0.69721
H          1.11784        6.89984       -0.45972
C          2.45154       -1.28161        1.96933
C          2.18518       -0.88358        3.30181
C          2.63757       -2.67893        1.72090
C          2.09440       -1.77384        4.37555
F          1.98290        0.46485        3.58866
C          2.28691       -3.13487        4.09324
H          1.88178       -1.42077        5.38116
N          2.20579       -4.11964        5.21519
C          2.54924       -3.59337        2.79436
O          1.94144       -3.66604        6.38810
O          2.40722       -5.35789        4.94360
H          2.67856       -4.65383        2.61148
C          2.93379       -3.21717        0.33975
O          2.94738       -4.60363        0.34329
O          3.15998       -2.54084       -0.68487
C          3.14297       -5.27125       -0.96451
H          2.33838       -4.98250       -1.65352
H          4.11611       -4.99556       -1.39264
H          3.10073       -6.34063       -0.73445
