85
/cluster/projects/nn2506k/marcof/RuC_BondLength/evolutionary_desing/RUN28052021121055/Gen000/M00000021_I_DFT.out	Energy: -1091360.0409411
Ru        -0.21169        0.13356        0.00706
C         -0.56982       -0.90553        1.45299
C          1.72659        0.03281       -0.19973
Cl        -0.96599       -1.38277       -1.71676
Cl        -0.37573        2.28660        1.10053
H          0.12295       -1.46113        2.08851
H         -1.64724       -0.96531        1.71927
N          2.37508        0.69882       -1.24726
N          2.70770       -0.58827        0.56882
C          3.85240        0.38444       -1.27873
C          1.72715        1.28300       -2.42397
C          4.09408       -0.13887        0.15841
C          4.78850        1.50993       -1.72150
H          4.01316       -0.41297       -2.01409
C          5.21419       -1.17078        0.28761
H          4.38919        0.68118        0.82433
C          5.34658       -2.30853       -0.54278
N          6.13167       -0.87531        1.26077
C          6.44627       -3.16948       -0.35946
H          4.61132       -2.52353       -1.31532
C          7.39026       -2.87427        0.64662
H          6.56539       -4.05033       -0.99192
C          7.18875       -1.71665        1.42740
H          8.25584       -3.51436        0.81909
H          7.89398       -1.44183        2.21433
C          5.11337        2.63673       -0.93024
N          5.34333        1.31139       -2.95819
C          6.02397        3.58846       -1.42963
H          4.66667        2.77827        0.05172
C          6.58985        3.39445       -2.70727
H          6.28631        4.46282       -0.83239
C          6.21809        2.24125       -3.43012
H          7.29805        4.10789       -3.12936
H          6.63183        2.04320       -4.42094
C          1.40930        2.67369       -2.43327
C          1.51955        0.46619       -3.57505
C          1.76199        3.58200       -1.26638
C          0.76493        3.22209       -3.58208
H          2.16660        3.02042       -0.42527
H          0.88189        4.11660       -0.88992
H          2.50840        4.33197       -1.57273
C          0.38431        4.70017       -3.61374
C          0.47659        2.39613       -4.70634
H          0.60959        5.15605       -4.58791
H          0.91444        5.28235       -2.85492
H         -0.69481        4.84043       -3.42930
C         -0.29487        2.96289       -5.89531
C          0.90739        1.03845       -4.72471
H          0.37937        3.28405       -6.70864
H         -0.89995        3.83093       -5.61374
H         -0.98118        2.21788       -6.31785
C          0.70419        0.18121       -5.97003
H          1.53975       -0.51364       -6.12179
H          0.62265        0.78718       -6.87907
H         -0.21302       -0.42858       -5.89484
C          1.94072       -0.99526       -3.60965
H          2.08829       -1.40338       -2.60862
H          2.87550       -1.12051       -4.18208
H          1.17172       -1.61632       -4.08183
C          2.56332       -1.33269        1.81044
C          2.34566       -2.74109        1.75346
C          2.72686       -0.64963        3.04964
C          2.10408       -3.44673        0.42604
C          2.30292       -3.47864        2.97391
H          2.09063       -2.74594       -0.40884
H          1.13146       -3.96035        0.42233
H          2.87539       -4.20547        0.22447
C          2.07299       -4.98798        2.95186
C          2.47970       -2.81017        4.22161
H          2.81850       -5.51643        3.56416
H          2.13063       -5.40466        1.94299
H          1.07994       -5.25285        3.35261
C          2.40870       -3.59134        5.53085
C          2.71391       -1.40472        4.25714
H          1.89236       -4.54937        5.41608
H          1.87450       -3.02767        6.30716
H          3.41599       -3.80985        5.92638
C          2.94801       -0.70211        5.59096
H          3.45133       -1.35683        6.31256
H          1.99945       -0.37625        6.05291
H          3.57309        0.19043        5.47592
C          2.88287        0.86360        3.10108
H          2.27502        1.29427        3.90734
H          2.54798        1.33921        2.17690
H          3.93013        1.15451        3.28639
