51
/cluster/projects/nn2506k/marcof/RuC_BondLength/evolutionary_desing/RUN28052021121055/Gen000/M00000049_I_DFT.out	Energy: -907318.4601568
Ru        -0.04587       -0.45949       -0.31118
C         -0.37520       -1.58503        1.07700
C          1.87322       -0.43418       -0.33549
Cl        -0.37777       -2.01152       -2.12496
Cl        -0.38836        1.72394        0.60235
H          0.33880       -2.19614        1.63723
H         -1.44445       -1.70216        1.34694
N          2.60987        0.24745       -1.30145
N          2.80692       -1.11998        0.47132
C          4.08045        0.06806       -1.12420
C          2.10404        1.09678       -2.34457
C          4.15933       -1.21872       -0.25615
H          4.51811        0.94274       -0.62352
H          4.55923       -0.06457       -2.10068
C          4.27746       -2.50174       -1.15089
C          5.42791       -1.24637        0.63194
C          5.79618       -2.86711       -1.17372
H          3.87642       -2.31670       -2.15679
H          3.68124       -3.30978       -0.71793
C          6.51799       -1.76990       -0.33468
H          5.95077       -3.85522       -0.71641
H          6.19603       -2.92215       -2.19621
H          6.88202       -0.95731       -0.98286
H          7.38920       -2.16190        0.20868
H          5.30489       -1.96199        1.45407
H          5.66588       -0.26779        1.07106
C          2.26107        2.51002       -2.29580
C          1.49485        0.53363       -3.49237
C          1.81181        3.33523       -3.33670
Cl         3.03072        3.31947       -0.87308
C          1.19760        2.73332       -4.45206
H          1.92063        4.41531       -3.28979
N          0.72123        3.60867       -5.56449
C          1.02846        1.33919       -4.54487
O          0.15893        3.04245       -6.57141
O          0.90428        4.87616       -5.45363
H          0.55162        0.90066       -5.41773
H          1.37545       -0.54478       -3.54158
C          2.68911       -1.16239        1.89789
C          2.40525        0.04627        2.59650
C          2.86713       -2.33689        2.68387
C          2.31392        0.09733        3.99373
H          2.24452        0.95314        2.01888
C          2.53051       -1.08599        4.72785
H          2.09385        1.02933        4.50826
N          2.46510       -1.05707        6.21444
C          2.80195       -2.30893        4.08504
O          2.20601        0.06796        6.78101
O          2.67357       -2.15713        6.84950
H          2.93765       -3.21286        4.67268
Cl         3.10804       -3.96603        1.92434
