81
/cluster/projects/nn2506k/marcof/RuC_BondLength/evolutionary_desing/RUN28052021121055/Gen000/M00000013_I_DFT.out	Energy: -1039444.9042838
Ru        -0.01848       -0.94707       -0.80360
C         -0.50129       -1.01857        0.96196
C          1.86443       -0.55564       -0.62741
Cl         0.03556       -3.32350       -1.29409
Cl        -1.15499        1.23159       -1.08184
H          0.12227       -0.80629        1.83575
H         -1.56493       -1.22626        1.19542
N          2.50619        0.49475       -1.32257
N          2.89502       -1.29862       -0.02846
C          3.97680        0.53582       -0.98684
C          1.91931        1.58956       -2.04191
C          4.99616        0.99877       -2.03725
C          4.22010       -0.93193       -0.64418
H          4.09825        1.14392       -0.08043
C          6.40624        0.83852       -1.39319
H          4.83930        2.04851       -2.32390
H          4.91690        0.38685       -2.95063
C          6.66667       -0.58078       -0.81424
H          6.51170        1.58414       -0.58693
H          7.17829        1.07490       -2.14314
C          5.53526       -1.08481        0.13133
H          6.78184       -1.29688       -1.64617
H          7.62289       -0.58018       -0.26671
H          5.72584       -2.13287        0.40262
H          5.50453       -0.49483        1.05682
H          4.30333       -1.51158       -1.57908
C          1.38136        1.42409       -3.35889
C          1.99300        2.91995       -1.55762
C          1.02473        2.55041       -4.13596
C          1.04757        0.06405       -3.88995
C          1.13603        3.86850       -3.64536
H          0.60700        2.39622       -5.13003
C          0.75556        5.07180       -4.49623
C          1.61484        4.03234       -2.32702
C          1.94778        5.65602       -5.30994
H         -0.04661        4.79012       -5.19693
H          0.34463        5.86563       -3.85221
C          1.54927        6.87861       -6.17063
H          2.75527        5.94391       -4.61538
H          2.36380        4.86832       -5.96124
C          2.72647        7.46255       -6.98273
H          1.13249        7.66431       -5.51620
H          0.73763        6.58939       -6.86131
H          3.54147        7.79721       -6.32121
H          2.40384        8.32953       -7.58037
H          3.14383        6.71506       -7.67629
H          1.67515        5.02616       -1.88532
C          1.24503       -0.25332       -5.36658
O          0.55393       -0.82285       -3.13607
H          0.40558        0.14743       -5.95843
H          2.17250        0.18327       -5.76149
H          1.25094       -1.34191       -5.49646
Cl         2.51050        3.26888        0.14922
C          2.78947       -2.36209        0.92468
C          2.51743       -2.10441        2.31106
C          3.02022       -3.71331        0.56083
C          2.34321       -3.19119        3.20380
C          2.55943       -0.71015        2.90992
C          2.50516       -4.53562        2.80621
H          2.10464       -2.98642        4.24606
C          2.33651       -5.68461        3.79065
C          2.87470       -4.77795        1.46555
C          3.66959       -6.12935        4.46142
H          1.62410       -5.39331        4.57905
H          1.89506       -6.55140        3.27305
C          3.48249       -7.29700        5.45930
H          4.38801       -6.42738        3.67908
H          4.11892       -5.26758        4.98393
C          4.80143       -7.74472        6.12735
H          3.02996       -8.15627        4.93379
H          2.76135       -6.99779        6.24034
H          5.53291       -8.08685        5.37794
H          4.62789       -8.57590        6.82872
H          5.26326       -6.92011        6.69359
H          3.02482       -5.79674        1.11115
C          1.74972       -0.41552        4.17908
O          3.30628        0.18776        2.43826
H          2.34624       -0.67035        5.07071
H          1.55180        0.66269        4.21629
H          0.80325       -0.96725        4.23238
Cl         3.53488       -4.16298       -1.11988
