59
/cluster/projects/nn2506k/marcof/RuC_BondLength/evolutionary_desing/RUN28052021121055/Gen000/M00000030_I_DFT.out	Energy: -855894.1107410
Ru        -0.02650        0.12610       -0.16055
C         -0.46742       -1.23457        0.95988
C          1.91111        0.08915       -0.23867
Cl        -0.57199       -0.87610       -2.27962
Cl        -0.23325        1.99268        1.34832
H          0.17932       -1.95457        1.46666
H         -1.55786       -1.33577        1.14744
N          2.62201        1.02550       -1.00578
N          2.86673       -0.69829        0.40403
C          4.06825        1.03218       -0.60625
C          2.10477        1.86025       -2.05644
C          5.16818        1.40554       -1.60778
C          4.23814       -0.41922       -0.15366
H          4.16053        1.69624        0.27290
C          6.52444        1.24578       -0.85626
H          5.05942        2.44006       -1.96473
H          5.13143        0.74576       -2.48784
C          6.70035       -0.14018       -0.17143
H          6.60274        2.03878       -0.09281
H          7.35315        1.40929       -1.56354
C          5.49146       -0.55825        0.71988
H          6.85222       -0.91010       -0.94750
H          7.61580       -0.12929        0.44144
H          5.63021       -1.59102        1.07249
H          5.41828        0.08938        1.60644
H          4.36485       -1.06208       -1.04407
C          1.97792        1.31193       -3.35627
C          1.82633        3.24907       -1.89402
C          1.48927        2.02368       -4.45383
F          2.40592       -0.00935       -3.56888
C          1.13367        3.38235       -4.28142
H          1.39118        1.52129       -5.41531
C          0.54950        4.17806       -5.43559
C          1.33276        3.97029       -3.01014
H          0.60972        5.25981       -5.25440
H         -0.51389        3.92587       -5.58259
H          1.06748        3.96072       -6.38161
H          1.09688        5.02675       -2.87623
C          2.09976        3.97687       -0.59062
H          1.52482        4.91051       -0.53806
H          3.16745        4.24498       -0.51440
H          1.83671        3.37338        0.28316
C          2.67182       -1.78056        1.32283
C          2.71825       -1.52832        2.71316
C          2.52203       -3.13203        0.89468
C          2.59414       -2.52660        3.68513
F          2.90635       -0.20713        3.15058
C          2.43008       -3.86984        3.26982
H          2.62755       -2.25227        4.73912
C          2.28002       -4.97927        4.29690
C          2.40288       -4.14332        1.88089
H          2.27124       -5.97021        3.82414
H          1.34065       -4.87081        4.86289
H          3.10179       -4.96132        5.02954
H          2.27853       -5.17514        1.55041
C          2.47386       -3.49510       -0.57971
H          2.14411       -4.53341       -0.71378
H          3.46627       -3.40398       -1.04949
H          1.78908       -2.84636       -1.13995
