85
/cluster/projects/nn2506k/marcof/RuC_BondLength/evolutionary_desing/RUN28052021121055/Gen000/M00000022_I_DFT.out	Energy: -1090852.5069528
Ru        -0.08195       -0.08237       -0.55572
C         -0.41946        1.05834        0.82026
C          1.86444        0.03183       -0.41223
Cl        -0.86919       -2.16282        0.34068
Cl        -0.51592        1.02675       -2.64040
H          0.36075        1.46846        1.46894
H         -1.47456        1.32096        1.02938
N          2.68023        1.18454       -0.37497
N          2.73378       -1.07058       -0.41588
C          4.11081        0.77496       -0.10405
C          2.31070        2.57580       -0.58818
C          5.30131        1.60323       -0.60968
C          4.14085       -0.62513       -0.71601
H          4.21097        0.66797        0.98923
C          6.59289        0.86387       -0.14987
H          5.29296        2.62890       -0.21367
H          5.28599        1.67659       -1.70423
C          6.62496       -0.63026       -0.57540
H          6.67779        0.93184        0.94850
H          7.47278        1.38211       -0.56354
C          5.34133       -1.41549       -0.17599
H          6.75589       -0.69240       -1.66949
H          7.50414       -1.11987       -0.12717
H          5.37539       -2.42740       -0.60040
H          5.28243       -1.51864        0.91816
H          4.24192       -0.56468       -1.81252
C          2.29763        3.08493       -1.92599
C          2.00239        3.46473        0.51356
C          2.70077        2.26304       -3.15172
C          1.85165        4.40771       -2.15593
C          3.80017        2.91148       -4.03473
H          1.80394        2.10696       -3.76764
H          3.02637        1.26419       -2.84889
H          4.05411        2.23612       -4.86709
H          4.72176        3.11674       -3.47058
H          3.46808        3.86086       -4.47855
C          1.47344        5.26147       -1.10195
H          1.78873        4.75483       -3.18454
C          1.58547        4.78088        0.22090
C          0.97808        6.67125       -1.31735
H          1.33328        5.46870        1.02356
C          0.77531        7.18598       -2.74148
O          0.72661        7.41883       -0.33025
H          1.72265        7.18839       -3.30321
H          0.06495        6.55264       -3.29492
H          0.38605        8.20928       -2.69873
N          2.04842        3.04026        1.89417
C          3.38202        2.95407        2.53656
C          1.07065        3.66149        2.82087
H          4.13155        2.57839        1.84121
H          3.33585        2.27622        3.40290
H          3.72827        3.94575        2.89593
H          0.98456        3.02435        3.71447
H          0.08340        3.72835        2.35000
H          1.36286        4.67506        3.16129
C          2.47201       -2.47399       -0.18390
C          2.29154       -2.93462        1.15857
C          2.59540       -3.40639       -1.27005
C          2.21193       -1.94049        2.31913
C          2.21415       -4.32079        1.39018
C          2.11510       -2.53327        3.73956
H          1.33868       -1.29447        2.15465
H          3.08844       -1.27321        2.27601
H          1.19798       -3.12535        3.87188
H          2.08705       -1.71568        4.47680
H          2.97450       -3.17520        3.98643
C          2.31751       -5.25984        0.33821
H          2.07925       -4.70721        2.39544
C          2.50240       -4.79045       -0.97984
C          2.22316       -6.72832        0.66916
H          2.56358       -5.49878       -1.80040
C          2.22044       -7.75753       -0.46343
O          2.14274       -7.11507        1.86953
H          1.38740       -7.57870       -1.16068
H          3.15527       -7.71619       -1.04441
H          2.11665       -8.75918       -0.03147
N          2.87477       -2.96629       -2.60664
C          3.58637       -3.89755       -3.50308
C          1.83416       -2.18893       -3.31848
H          4.41456       -4.38379       -2.97116
H          4.00964       -3.32237       -4.34066
H          2.93933       -4.68672       -3.94030
H          1.40154       -1.42650       -2.67274
H          1.00995       -2.83438       -3.68335
H          2.28116       -1.68110       -4.18617
