75
/cluster/projects/nn2506k/marcof/RuC_BondLength/evolutionary_desing/RUN28052021121055/Gen000/M00000025_I_DFT.out	Energy: -1272976.0461408
Ru         0.06816        0.38892       -0.06122
C         -0.25952        0.08952        1.70176
C          1.96319       -0.04581       -0.28226
Cl        -0.94516       -1.57045       -1.02771
Cl         0.11893        2.79828       -0.02817
H          0.43069       -0.22333        2.48987
H         -1.31084        0.26696        2.01216
N          2.60272        0.19176       -1.50462
N          2.91473       -0.59115        0.58643
C          4.06340       -0.08037       -1.43485
C          2.07386        0.94407       -2.63914
C          4.27208       -0.82155       -0.08617
H          4.62618        0.86059       -1.46416
H          4.38418       -0.68296       -2.29155
C          4.65212       -2.32614       -0.28525
C          5.52131       -0.29444        0.67751
C          6.17754       -2.31867       -0.59374
H          4.06345       -2.80913       -1.07389
H          4.46584       -2.86961        0.64889
C          6.71475       -0.94456       -0.06770
H          6.67554       -3.16508       -0.09955
H          6.37051       -2.42566       -1.67139
H          7.04313       -0.31288       -0.90722
H          7.58270       -1.06432        0.59619
H          5.49420       -0.65366        1.71250
H          5.57049        0.80038        0.70651
C          2.36957        2.34354       -2.71292
C          1.31504        0.30595       -3.70127
C          3.23751        3.06935       -1.69606
C          1.83752        3.12458       -3.75799
H          2.90066        4.10752       -1.58956
H          4.28895        3.09922       -2.02907
H          3.19732        2.61562       -0.70462
C          1.02284        2.53000       -4.73970
H          2.04456        4.19196       -3.78724
C          0.40357        3.38679       -5.81285
C          0.77155        1.15564       -4.71556
F          0.07716        2.66601       -6.98803
F          1.24612        4.45017       -6.22394
F         -0.80968        4.00306       -5.39285
H          0.19857        0.71204       -5.52238
N          1.06496       -1.06488       -3.82009
C         -0.12108       -1.54932       -4.55045
C          2.00950       -2.11513       -3.42293
H         -0.97151       -0.87368       -4.40388
H         -0.41496       -2.52284       -4.13867
H          0.06506       -1.67002       -5.63486
H          1.77107       -2.54549       -2.43957
H          3.03595       -1.73799       -3.42171
H          1.97084       -2.92600       -4.16708
C          2.70293       -1.10622        1.92925
C          3.14815       -0.35252        3.09047
C          2.15717       -2.41554        2.10094
N          3.68933        0.95133        3.02524
C          3.08741       -0.99077        4.36141
C          2.96921        2.06762        2.38038
C          4.60448        1.40556        4.08718
H          2.42289        2.66722        3.13363
H          2.23960        1.71500        1.65715
H          3.67786        2.73739        1.86929
H          5.20010        2.24406        3.69683
H          5.29756        0.60540        4.37707
H          4.08255        1.76722        4.99537
C          2.58355       -2.29209        4.50797
H          3.39647       -0.44315        5.24571
C          2.59346       -2.94513        5.86544
C          2.10557       -2.99534        3.39114
F          1.56733       -3.90223        6.03148
F          2.45571       -2.02142        6.92989
F          3.81378       -3.64147        6.12208
H          1.69347       -3.99607        3.50577
C          1.60783       -3.26227        0.96594
H          0.51633       -3.35092        1.05539
H          2.02653       -4.27888        1.00822
H          1.80316       -2.84449       -0.01961
