53
/cluster/projects/nn2506k/marcof/RuC_BondLength/evolutionary_desing/RUN28052021121055/Gen000/M00000011_I_DFT.out	Energy: -1095312.6071540
Ru        -0.08447        0.13610        0.03905
C         -0.20310        0.29643        1.84777
C          1.80419        0.38265       -0.32703
Cl        -0.44271       -2.21589       -0.22144
Cl        -0.76791        2.26723       -0.78213
H          0.58647        0.35694        2.60032
H         -1.24223        0.28155        2.23600
N          2.83314        0.96730        0.41593
N          2.36491        0.10933       -1.57852
C          4.06195        1.25585       -0.39532
C          2.85839        1.31658        1.79615
C          3.81772        0.44900       -1.68239
H          4.95309        0.91567        0.14278
H          4.12837        2.33402       -0.59238
H          4.41540       -0.47136       -1.71271
H          3.99413        1.04518       -2.58295
C          2.65396        2.65045        2.24255
C          3.17221        0.36246        2.80887
C          2.71375        3.00502        3.60231
Cl         2.29759        3.95723        1.05903
C          2.98915        2.02028        4.57602
H          2.54090        4.03385        3.90468
C          3.21691        0.68681        4.17257
C          3.05978        2.33713        6.04281
H          3.43083       -0.07718        4.91670
O          2.79243        3.67712        6.29190
O          3.32531        1.50048        6.93284
C          2.82274        4.11150        7.70998
H          2.07425        3.55704        8.29150
H          3.82009        3.94142        8.13700
H          2.58431        5.17934        7.67590
N          3.49349       -1.05605        2.46328
O          2.93722       -1.97151        3.16709
O          4.34274       -1.26668        1.52372
C          1.73491       -0.57112       -2.66923
C          1.86557       -1.97898       -2.81687
C          1.00205        0.10091       -3.69430
C          1.23451       -2.69126       -3.84982
Cl         2.87798       -2.92171       -1.66349
C          0.45338       -1.99949       -4.79935
H          1.33746       -3.77060       -3.91023
C          0.34863       -0.59515       -4.72400
C         -0.26168       -2.70368       -5.91688
H         -0.22834       -0.05145       -5.46792
O         -0.08242       -4.08038       -5.85334
O         -0.93642       -2.12885       -6.79815
C         -0.76181       -4.88907       -6.89363
H         -1.84844       -4.74044       -6.83804
H         -0.40253       -4.60386       -7.89154
H         -0.49307       -5.92370       -6.65743
N          0.94966        1.59636       -3.79628
O         -0.09816        2.11739       -4.31266
O          1.98415        2.26088       -3.42435
