75
/cluster/projects/nn2506k/marcof/RuC_BondLength/evolutionary_desing/RUN28052021121055/Gen000/M00000044_I_DFT.out	Energy: -878509.6887443
Ru        -0.05451        0.08198        0.07009
C         -0.26972       -0.50167        1.77659
C          1.88203        0.05766       -0.20549
Cl        -0.69424       -1.92573       -1.11385
Cl        -0.42797        2.43544        0.49206
H          0.49254       -0.75255        2.51752
H         -1.32820       -0.58546        2.10502
N          2.45842        0.61211       -1.34920
N          2.91609       -0.44009        0.57807
C          3.96218        0.59443       -1.32655
C          1.76431        1.36052       -2.39546
C          4.63055       -0.04643       -2.58023
C          4.28234       -0.11800        0.02338
H          4.30405        1.63787       -1.28575
C          4.72699       -1.55613       -2.52198
H          4.10730        0.29352       -3.48234
H          5.64928        0.38026       -2.64525
C          5.01744       -2.16789       -1.34949
H          4.56488       -2.13131       -3.43569
C          5.24083       -1.33988       -0.10149
H          5.09829       -3.25467       -1.28299
H          5.17452       -1.95020        0.80765
H          6.26832       -0.92982       -0.11436
H          4.75702        0.59195        0.71676
C          1.74967        2.78650       -2.32196
C          1.20454        0.66989       -3.51278
C          2.41196        3.53798       -1.17587
C          1.08737        3.52263       -3.34357
H          2.65406        2.88001       -0.34005
H          1.74447        4.30999       -0.77613
H          3.33830        4.03878       -1.50705
C          1.07072        5.04666       -3.28360
C          0.41844        2.83984       -4.40029
H          1.99064        5.44739       -2.84104
H          0.23122        5.41446       -2.66807
H          0.96965        5.49644       -4.27805
C         -0.39462        3.63545       -5.41770
C          0.50948        1.42234       -4.50687
H         -0.92718        4.46805       -4.94019
H         -1.14835        3.01623       -5.91453
H          0.24479        4.06801       -6.20718
C         -0.13911        0.71233       -5.69237
H          0.21047       -0.31732       -5.80446
H          0.06677        1.23153       -6.63929
H         -1.23562        0.66644       -5.57794
C          1.36358       -0.83391       -3.67897
H          0.39328       -1.33708       -3.76285
H          1.87820       -1.28618       -2.83200
H          1.93877       -1.06327       -4.59117
C          2.85134       -1.02313        1.90818
C          2.65050       -2.42674        2.06004
C          3.07151       -0.17294        3.03381
C          2.38347       -3.31306        0.85226
C          2.66748       -2.98518        3.37414
H          2.40066       -2.74788       -0.07881
H          1.39233       -3.78397        0.91845
H          3.12705       -4.12119        0.77300
C          2.43328       -4.48013        3.57651
C          2.90485       -2.14999        4.50516
H          3.23105       -4.93591        4.18222
H          2.38916       -5.02777        2.63211
H          1.48193       -4.66987        4.10079
C          2.91494       -2.73831        5.91300
C          3.12833       -0.75198        4.33353
H          2.40625       -2.07888        6.62900
H          3.94533       -2.87984        6.28323
H          2.41859       -3.71206        5.96174
C          3.40990        0.12480        5.55001
H          3.93540        1.04722        5.28146
H          4.03083       -0.39780        6.28912
H          2.47814        0.42061        6.06326
C          3.19166        1.33720        2.86897
H          2.55229        1.86218        3.59211
H          2.87381        1.66445        1.87728
H          4.22298        1.69108        3.03521
