74
/cluster/projects/nn2506k/marcof/RuC_BondLength/evolutionary_desing/RUN28052021044732/Gen001/M00000039_I_DFT.out	Energy: -884099.4023940
Ru        -0.18607       -0.09814       -0.16716
C         -0.51544       -0.92005        1.41878
C          1.75314       -0.18901       -0.36368
Cl        -0.85418       -1.86157       -1.67534
Cl        -0.41469        2.19399        0.56113
H          0.19530       -1.34977        2.12812
H         -1.59068       -0.97386        1.69486
N          2.39296        0.42931       -1.43707
N          2.74023       -0.79010        0.41345
C          3.85975        0.20425       -1.44611
C          1.79229        1.15346       -2.55063
C          4.14364       -0.42189       -0.05786
H          4.13975       -0.46450       -2.27076
H          4.39691        1.15161       -1.58258
C          5.15928       -1.54041       -0.08707
H          4.51358        0.35774        0.62526
C          5.30905       -2.59966       -0.96966
S          6.48706       -1.56794        1.15037
C          6.44329       -3.44233       -0.69796
H          4.62477       -2.78836       -1.79411
C          7.18360       -3.03273        0.39660
H          6.69895       -4.31540       -1.29562
H          8.07991       -3.47196        0.82111
C          1.71340        2.57582       -2.48083
C          1.42556        0.44079       -3.73011
C          2.29936        3.34271       -1.30426
C          1.09785        3.27772       -3.55645
H          2.64998        2.67364       -0.51611
H          1.55601        4.00436       -0.84377
H          3.14898        3.96586       -1.63077
C          0.96132        4.79610       -3.50029
C          0.59486        2.56194       -4.68212
H          1.11221        5.25627       -4.48588
H          1.68442        5.25149       -2.81646
H         -0.04223        5.09361       -3.14985
C         -0.17077        3.30375       -5.77388
C          0.81589        1.15887       -4.79888
H          0.49825        3.66361       -6.57545
H         -0.69766        4.17811       -5.37483
H         -0.92467        2.66164       -6.24460
C          0.38950        0.42262       -6.06516
H          0.98108       -0.48362       -6.23311
H          0.49817        1.04971       -6.95911
H         -0.66769        0.10946       -6.00971
C          1.70960       -1.04703       -3.87901
H          0.81578       -1.59999       -4.18969
H          2.03866       -1.49828       -2.94147
H          2.49098       -1.21672       -4.63955
C          2.60969       -1.46140        1.69538
C          2.40178       -2.87056        1.72724
C          2.77279       -0.69799        2.88897
C          2.16793       -3.65911        0.44701
C          2.36971       -3.52904        2.99237
H          2.13012       -3.00876       -0.42704
H          1.20983       -4.19754        0.48413
H          2.96098       -4.40412        0.28364
C          2.15892       -5.03894        3.06650
C          2.54044       -2.78128        4.19443
H          2.89186       -5.51421        3.73443
H          2.25248       -5.52041        2.08960
H          1.15715       -5.28982        3.45488
C          2.47936       -3.48150        5.54874
C          2.76263       -1.37383        4.14259
H          1.91558       -4.41903        5.50455
H          2.00008       -2.85185        6.30904
H          3.48918       -3.72663        5.92221
C          2.98389       -0.59310        5.43477
H          3.50261        0.35508        5.26023
H          3.58830       -1.16430        6.15158
H          2.02950       -0.35296        5.93522
C          2.90991        0.81905        2.84140
H          2.64167        1.22493        1.86390
H          3.93410        1.14794        3.08521
H          2.23825        1.29624        3.56800
