92
/cluster/projects/nn2506k/marcof/RuC_BondLength/evolutionary_desing/RUN28052021044732/Gen007/M00000068_I_DFT.out	Energy: -1031993.1332552
Ru         0.04299        0.39138        0.08105
C         -0.30528       -0.27579        1.73418
C          1.92365       -0.03985       -0.29159
Cl        -1.25885       -1.23003       -1.16238
Cl         0.37591        2.70657        0.71551
H          0.33500       -0.87064        2.38845
H         -1.32477       -0.04573        2.11300
N          2.48925        0.32240       -1.51512
N          2.93109       -0.55993        0.51493
C          3.99537        0.38883       -1.40252
C          1.75594        0.86949       -2.65785
C          4.31996       -0.59330       -0.19476
C          4.78896        0.32229       -2.68834
H          4.21599        1.39481       -1.02793
C          5.50418       -0.05200        0.68802
C          4.71782       -2.03341       -0.68411
C          5.79870        1.46499        0.81786
H          6.41922       -0.50584        0.27836
H          5.38833       -0.47942        1.69262
C          6.91396        1.73431        1.85646
H          4.90309        2.03354        1.09856
H          6.14028        1.86604       -0.14809
H          7.84633        1.21289        1.58641
H          7.13959        2.81026        1.91891
H          6.62229        1.39465        2.86221
C          5.31615       -3.05908        0.31772
H          5.48806       -1.87884       -1.45178
H          3.86432       -2.49246       -1.19792
C          5.65916       -4.39331       -0.38686
H          4.63188       -3.25558        1.14929
H          6.23926       -2.65942        0.76359
H          6.38398       -4.24352       -1.20328
H          6.10117       -5.10895        0.32430
H          4.76334       -4.86453       -0.82113
C          5.65953        1.31941       -3.11304
S          4.75693       -1.01027       -3.92784
C          6.31358        1.06760       -4.36791
H          5.82419        2.23108       -2.54270
C          5.94115       -0.13395       -4.93938
H          7.02018        1.75584       -4.82750
H          6.25663       -0.57399       -5.87957
C          1.72059        2.27913       -2.88057
C          1.14731       -0.04006       -3.57684
C          2.44402        3.26074       -1.97110
C          0.99546        2.78234       -3.99826
H          3.37692        3.61719       -2.43978
H          2.67921        2.82858       -0.99860
H          1.82369        4.13995       -1.76424
C          0.98325        4.28370       -4.27091
C          0.27567        1.89294       -4.84598
H          0.78334        4.50775       -5.32462
H          1.94554        4.74783       -4.02131
H          0.21252        4.79982       -3.67201
C         -0.60566        2.45367       -5.95884
C          0.38075        0.48461       -4.65787
H         -0.02047        2.69603       -6.86333
H         -1.11200        3.37503       -5.64346
H         -1.38577        1.74635       -6.25827
C         -0.34178       -0.45704       -5.61705
H         -0.19642       -0.16093       -6.66593
H         -1.42797       -0.45815       -5.42408
H         -0.00425       -1.49216       -5.52191
C          1.31281       -1.54516       -3.43775
H          1.77222       -1.97014       -4.34192
H          0.34708       -2.03912       -3.27970
H          1.94910       -1.80328       -2.59091
C          2.70805       -1.23310        1.79403
C          2.23975       -2.58520        1.81982
C          2.94727       -0.52446        3.01208
C          1.74315       -3.29240        0.56733
C          2.18607       -3.27387        3.06796
H          0.67412       -3.53242        0.66204
H          2.27610       -4.23762        0.38981
H          1.83338       -2.67508       -0.32321
C          1.69802       -4.71856        3.12908
C          2.60184       -2.62487        4.26631
H          2.54123       -5.43166        3.12166
H          1.05462       -4.97581        2.28235
H          1.12153       -4.91212        4.04302
C          2.65144       -3.40642        5.57518
C          2.92431       -1.23792        4.24775
H          3.36323       -2.97104        6.28529
H          2.95118       -4.44927        5.41258
H          1.66729       -3.42715        6.07539
C          3.23610       -0.52485        5.56096
H          3.27042        0.56192        5.45092
H          4.21406       -0.83888        5.96392
H          2.48550       -0.75094        6.33256
C          3.12084        0.98668        3.01841
H          4.09641        1.30060        3.41539
H          2.34968        1.45155        3.65022
H          2.99473        1.40802        2.02274
