87
/cluster/projects/nn2506k/marcof/RuC_BondLength/evolutionary_desing/RUN28052021044948/Gen007/M00000071_I_DFT.out	Energy: -1071239.6050881
Ru        -0.20323        0.18223        0.03809
C         -0.57067       -0.89162        1.45585
C          1.73280        0.05198       -0.18997
Cl        -1.01535       -1.26343       -1.72037
Cl        -0.30048        2.31026        1.18702
H          0.11372       -1.49330        2.05779
H         -1.64481       -0.92635        1.73940
N          2.37932        0.74442       -1.21946
N          2.70622       -0.61201        0.54856
C          3.86992        0.48648       -1.24415
C          1.73604        1.29965       -2.41457
C          4.11032       -0.23680        0.11402
C          4.77426        1.69994       -1.48077
H          4.06225       -0.21004       -2.06939
C          5.13743       -1.37112        0.05892
H          4.48323        0.48711        0.84932
C          6.20042       -1.37131        0.99417
C          5.10558       -2.39845       -0.91633
C          7.20206       -2.36368        0.96271
H          6.24943       -0.58815        1.75313
C          7.15794       -3.38030       -0.01399
H          8.01213       -2.34065        1.69366
C          6.10326       -3.39249       -0.95290
H          7.93198       -4.14909       -0.04509
H          6.05861       -4.17477       -1.71290
H          4.29971       -2.43902       -1.64792
C          4.98738        2.70912       -0.50939
C          5.46726        1.79983       -2.71127
C          5.86633        3.78089       -0.76084
H          4.45933        2.67895        0.44358
C          6.55229        3.86738       -1.99223
H          6.01287        4.54922        0.00050
C          6.34730        2.87134       -2.96964
H          7.23407        4.69744       -2.18555
H          6.87013        2.92588       -3.92605
H          5.32010        1.03398       -3.47526
C          1.40460        2.68588       -2.46298
C          1.54632        0.45255       -3.54872
C          1.71476        3.62287       -1.30819
C          0.78096        3.20254       -3.63822
H          2.08806        3.08339       -0.44009
H          0.82078        4.16755       -0.98066
H          2.47397        4.36363       -1.60384
C          0.39888        4.67842       -3.71262
C          0.51461        2.34838       -4.74590
H          0.60756        5.10173       -4.70451
H          0.94352        5.28418       -2.98285
H         -0.67688        4.82565       -3.51369
C         -0.23997        2.88140       -5.96091
C          0.94700        0.99123       -4.72122
H         -0.86985        3.73998       -5.70526
H         -0.90013        2.11670       -6.38919
H          0.44643        3.20650       -6.76252
C          0.74713        0.10023       -5.94334
H          1.54399       -0.64720       -6.03881
H          0.73614        0.67760       -6.87500
H         -0.20688       -0.45245       -5.88557
C          1.95173       -1.01476       -3.53573
H          1.15024       -1.64441       -3.93818
H          2.14565       -1.37829       -2.52621
H          2.85131       -1.18947       -4.15136
C          2.56492       -1.33130        1.80703
C          2.33609       -2.73819        1.78106
C          2.74634       -0.62577        3.03282
C          2.05274       -3.46597        0.47477
C          2.31750       -3.45424        3.01445
H          1.96039       -2.77308       -0.36151
H          1.10711       -4.02451        0.53310
H          2.84673       -4.18813        0.23338
C          2.10218       -4.96538        3.01955
C          2.50371       -2.76348        4.24764
H          2.81274       -5.46870        3.69028
H          2.22964       -5.40614        2.02702
H          1.08796       -5.23151        3.36381
C          2.44266       -3.52395        5.56921
C          2.73505       -1.35705        4.25565
H          3.45043       -3.80865        5.91953
H          1.85696       -4.44565        5.48800
H          1.98502       -2.92036        6.36292
C          2.96529       -0.63534        5.58031
H          3.48937        0.31648        5.44691
H          3.56668       -1.24138        6.27058
H          2.01306       -0.41055        6.09175
C          2.90281        0.88942        3.05774
H          3.92923        1.19328        3.32450
H          2.23052        1.33870        3.80081
H          2.64260        1.34448        2.10098
