74
/cluster/projects/nn2506k/marcof/RuC_BondLength/evolutionary_desing/RUN28052021121055/Gen004/M00000067_I_DFT.out	Energy: -884099.4023940
Ru        -0.18607       -0.09809       -0.16712
C         -0.51543       -0.92003        1.41879
C          1.75314       -0.18899       -0.36367
Cl        -0.85424       -1.86147       -1.67534
Cl        -0.41462        2.19402        0.56121
H          0.19530       -1.34981        2.12810
H         -1.59068       -0.97381        1.69490
N          2.39296        0.42933       -1.43706
N          2.74023       -0.79009        0.41346
C          3.85975        0.20427       -1.44611
C          1.79229        1.15347       -2.55062
C          4.14364       -0.42187       -0.05786
H          4.13974       -0.46449       -2.27076
H          4.39691        1.15162       -1.58258
C          5.15928       -1.54039       -0.08707
H          4.51358        0.35775        0.62526
C          5.30905       -2.59965       -0.96965
S          6.48706       -1.56792        1.15037
C          6.44329       -3.44232       -0.69795
H          4.62477       -2.78835       -1.79410
C          7.18361       -3.03272        0.39660
H          6.69896       -4.31538       -1.29561
H          8.07992       -3.47194        0.82112
C          1.71340        2.57583       -2.48084
C          1.42555        0.44079       -3.73009
C          2.29936        3.34273       -1.30428
C          1.09784        3.27772       -3.55646
H          2.64999        2.67367       -0.51613
H          1.55602        4.00438       -0.84379
H          3.14898        3.96588       -1.63081
C          0.96131        4.79609       -3.50032
C          0.59485        2.56192       -4.68212
H          1.11220        5.25625       -4.48591
H          1.68441        5.25149       -2.81649
H         -0.04224        5.09360       -3.14989
C         -0.17078        3.30372       -5.77390
C          0.81588        1.15885       -4.79887
H          0.49823        3.66356       -6.57547
H         -0.69767        4.17809       -5.37485
H         -0.92470        2.66161       -6.24460
C          0.38949        0.42258       -6.06514
H          0.98108       -0.48364       -6.23309
H          0.49813        1.04967       -6.95910
H         -0.66769        0.10941       -6.00968
C          1.70959       -1.04703       -3.87899
H          0.81577       -1.60000       -4.18966
H          2.03864       -1.49828       -2.94144
H          2.49097       -1.21674       -4.63952
C          2.60969       -1.46139        1.69539
C          2.40178       -2.87055        1.72723
C          2.77280       -0.69800        2.88898
C          2.16793       -3.65909        0.44700
C          2.36971       -3.52905        2.99236
H          2.13012       -3.00873       -0.42705
H          1.20981       -4.19751        0.48411
H          2.96096       -4.40411        0.28362
C          2.15891       -5.03894        3.06648
C          2.54044       -2.78129        4.19442
H          2.89186       -5.51422        3.73440
H          2.25247       -5.52041        2.08957
H          1.15714       -5.28982        3.45485
C          2.47937       -3.48152        5.54873
C          2.76264       -1.37385        4.14259
H          1.91558       -4.41904        5.50453
H          2.00009       -2.85188        6.30903
H          3.48919       -3.72666        5.92219
C          2.98391       -0.59312        5.43478
H          3.50263        0.35505        5.26024
H          3.58831       -1.16433        6.15158
H          2.02952       -0.35298        5.93523
C          2.90993        0.81905        2.84142
H          2.64169        1.22494        1.86392
H          3.93413        1.14793        3.08523
H          2.23828        1.29623        3.56803
