67
/cluster/projects/nn2506k/marcof/RuC_BondLength/evolutionary_desing/RUN28052021121055/Gen004/M00000068_I_DFT.out	Energy: -781418.9217074
Ru        -0.14945        0.38596        0.28197
C         -0.35633       -0.42955        1.89170
C          1.74931        0.16782       -0.10655
Cl        -1.07050       -1.33968       -1.13436
Cl        -0.14449        2.68783        1.01345
H          0.39393       -0.93498        2.50461
H         -1.39229       -0.40521        2.29342
N          2.31222        0.65350       -1.28688
N          2.77680       -0.42341        0.61751
C          3.77697        0.40092       -1.38800
C          1.64548        1.34608       -2.38165
C          4.09714       -0.34946       -0.07755
H          4.32162        1.35214       -1.47385
H          3.99851       -0.19789       -2.28289
H          4.48612       -1.36280       -0.25440
H          4.82272        0.18727        0.55070
C          1.61198        2.77182       -2.38125
C          1.16249        0.58625       -3.48764
C          2.31600        3.57925       -1.30009
C          0.93095        3.43780       -3.44065
H          2.70079        2.94429       -0.49987
H          1.63754        4.29841       -0.82618
H          3.16081        4.14528       -1.72784
C          0.84580        4.96094       -3.45599
C          0.31725        2.68212       -4.48183
H          0.91065        5.36334       -4.47549
H          1.64773        5.42534       -2.87329
H         -0.10788        5.31222       -3.02502
C         -0.51206        3.39204       -5.54799
C          0.48639        1.26795       -4.53980
H         -1.31117        2.74777       -5.93300
H          0.10325        3.70034       -6.41172
H         -0.99040        4.29549       -5.15211
C         -0.07093        0.48381       -5.72375
H          0.44438       -0.47167       -5.86525
H          0.02006        1.04366       -6.66378
H         -1.14100        0.25272       -5.58180
C          1.38782       -0.91654       -3.57324
H          1.81381       -1.31929       -2.65237
H          2.07093       -1.15988       -4.40469
H          0.44873       -1.45622       -3.74301
C          2.76458       -1.08650        1.90719
C          2.58579       -2.49988        1.95197
C          3.04633       -0.32252        3.07681
C          2.29114       -3.28881        0.68282
C          2.66283       -3.15870        3.21363
H          3.10635       -3.99171        0.44549
H          2.14541       -2.63429       -0.17853
H          1.37087       -3.88154        0.78629
C          2.48618       -4.67173        3.30308
C          2.90319       -2.40422        4.40013
H          2.57104       -5.15849        2.32728
H          1.49704       -4.94031        3.71208
H          3.24007       -5.12722        3.96061
C          2.93576       -3.10826        5.75326
C          3.11854       -0.99584        4.33101
H          2.29829       -3.99958        5.76683
H          2.59231       -2.45329        6.56249
H          3.95745       -3.43635        6.01421
C          3.42291       -0.21548        5.60630
H          3.82684        0.77949        5.39835
H          4.15632       -0.74007        6.23477
H          2.51633       -0.07329        6.21934
C          3.24049        1.18576        2.99485
H          3.04276        1.56760        1.99163
H          4.26533        1.47670        3.27763
H          2.55370        1.71361        3.67193
