112
/cluster/projects/nn2506k/marcof/RuC_BondLength/evolutionary_desing/RUN28052021044732/Gen010/M00000086_I_DFT.out	Energy: -1232207.2681445
Ru        -0.19844       -0.06158       -0.12721
C         -0.60680       -0.70756        1.52036
C          1.73359       -0.34173       -0.34868
Cl        -1.13573       -1.87986       -1.42312
Cl        -0.24041        2.29014        0.46374
H          0.04263       -1.16731        2.26726
H         -1.67943       -0.60276        1.79365
N          2.39658        0.19134       -1.45448
N          2.67824       -0.98896        0.44016
C          3.88377        0.16381       -1.23799
C          1.76963        0.94428       -2.54144
C          4.08947       -1.04233       -0.22944
C          4.73788        0.25135       -2.50103
H          4.13701        1.06472       -0.65785
C          5.27199       -0.66634        0.72565
C          4.28916       -2.44883       -0.88591
C          5.76502       -1.66054        1.81029
H          5.03891        0.28945        1.21287
H          6.12425       -0.46108        0.05713
C          7.08903       -1.18216        2.45950
H          5.00894       -1.77855        2.59375
H          5.92497       -2.65966        1.38226
C          7.60118       -2.12665        3.57348
H          7.86725       -1.08492        1.68072
H          6.94637       -0.17063        2.88097
C          8.92368       -1.65694        4.22661
H          7.74419       -3.13924        3.15540
H          6.82545       -2.22219        4.35403
C          9.43175       -2.60236        5.33805
H          8.78239       -0.64524        4.64651
H          9.70053       -1.56180        3.44731
H          8.69552       -2.69213        6.15299
H          9.62036       -3.61461        4.94562
H         10.37245       -2.23318        5.77654
C          5.67954       -2.82461       -1.46879
H          3.54098       -2.56627       -1.67919
H          4.05401       -3.19046       -0.11457
C          5.64619       -4.21936       -2.14481
H          6.01297       -2.08912       -2.20865
H          6.44225       -2.84133       -0.67675
C          7.01624       -4.65890       -2.71504
H          5.29913       -4.97319       -1.41504
H          4.89992       -4.20858       -2.95811
C          6.98646       -6.04791       -3.39785
H          7.76436       -4.67240       -1.90183
H          7.36571       -3.90545       -3.44371
C          8.35386       -6.48353       -3.97038
H          6.23855       -6.03690       -4.21021
H          6.63974       -6.80307       -2.67040
H          9.11797       -6.54236       -3.17849
H          8.28923       -7.47469       -4.44683
H          8.71412       -5.77052       -4.72952
C          5.80372        1.18622       -2.53951
N          4.45181       -0.54975       -3.56966
C          6.60035        1.28836       -3.69761
H          6.00262        1.82855       -1.68154
C          6.30169        0.46581       -4.80315
H          7.42543        2.00085       -3.73891
C          5.21712       -0.43047       -4.68729
H          6.88112        0.51761       -5.72521
H          4.94472       -1.08256       -5.52013
C          1.82346        2.37120       -2.52148
C          1.18612        0.23966       -3.63870
C          2.50765        3.13477       -1.39642
C          1.21728        3.10055       -3.58225
H          2.59763        2.53349       -0.49104
H          1.92908        4.02027       -1.11254
H          3.51241        3.47757       -1.69884
C          1.30209        4.62415       -3.59338
C          0.51734        2.41298       -4.61487
H          2.26147        4.97920       -3.19647
H          0.50904        5.07919       -2.97448
H          1.20328        5.03303       -4.60531
C         -0.25027        3.20640       -5.66923
C          0.53406        0.98966       -4.66313
H          0.40684        3.54684       -6.48893
H         -0.71863        4.09960       -5.23640
H         -1.05156        2.61313       -6.12201
C         -0.14467        0.26901       -5.82519
H          0.17053       -0.77433       -5.90815
H          0.07290        0.75360       -6.78760
H         -1.24148        0.26228       -5.70319
C          1.27599       -1.27189       -3.76253
H          1.85859       -1.54343       -4.65540
H          0.28404       -1.73072       -3.84093
H          1.77629       -1.71701       -2.90534
C          2.42249       -1.56083        1.75567
C          2.02921       -2.92811        1.88093
C          2.57193       -0.72797        2.90931
C          1.62195       -3.76192        0.67333
C          1.91502       -3.49422        3.18509
H          1.57331       -3.16718       -0.23734
H          0.61875       -4.18396        0.82736
H          2.30351       -4.60822        0.49600
C          1.54103       -4.96390        3.34988
C          2.12094       -2.69021        4.34319
H          2.09931       -5.43257        4.17120
H          1.74170       -5.54741        2.44616
H          0.46804       -5.08513        3.58029
C          1.96989       -3.32387        5.72290
C          2.42951       -1.30459        4.20676
H          1.07352       -3.95744        5.77764
H          1.88983       -2.58116        6.52148
H          2.83143       -3.97042        5.96344
C          2.60849       -0.44516        5.45672
H          3.33702       -0.89217        6.15000
H          1.66163       -0.33518        6.01090
H          2.96133        0.56292        5.22619
C          2.81677        0.76993        2.77727
H          3.77804        1.07324        3.22060
H          2.02745        1.33777        3.29042
H          2.80371        1.09472        1.73748
