96
/cluster/projects/nn2506k/marcof/RuC_BondLength/evolutionary_desing/RUN28052021121055/Gen013/M00000114_I_DFT.out	Energy: -1071937.8475123
Ru        -0.19738       -0.08279       -0.17035
C         -0.60916       -0.72966        1.47689
C          1.75983       -0.08553       -0.18371
Cl        -0.47873       -2.07060       -1.50900
Cl        -0.90044        2.20465        0.16688
H          0.06749       -0.93881        2.31070
H         -1.68855       -0.91461        1.66131
N          2.66362       -0.69106        0.68138
N          2.49903        0.44305       -1.25574
C          4.07266       -0.44999        0.25047
C          2.48942       -1.37343        1.94899
C          3.94004       -0.10714       -1.25392
H          4.66525       -1.35380        0.42267
H          4.49784        0.37323        0.84281
C          4.02198       -1.39132       -2.13762
C          4.98127        0.94004       -1.72069
C          5.45827       -1.95755       -2.26701
H          3.35379       -2.15719       -1.72341
H          3.61581       -1.14255       -3.12155
C          6.46982       -0.88607       -2.73184
H          5.79978       -2.37794       -1.30488
H          5.44233       -2.80087       -2.97737
C          6.41327        0.35411       -1.81228
H          6.23856       -0.58380       -3.76804
H          7.49026       -1.30377       -2.74373
H          7.09302        1.13837       -2.18517
H          6.77712        0.08229       -0.80628
H          4.97998        1.80049       -1.04021
H          4.69389        1.31645       -2.71257
C          2.76357       -0.66580        3.16873
C          2.21533       -2.77479        1.99638
N          3.10786        0.74138        3.15267
C          2.71534       -1.37039        4.39682
C          1.95193        1.67228        3.19245
C          4.19683        1.15648        4.06428
H          1.43112        1.65453        4.17381
H          1.22827        1.42677        2.41283
H          2.30515        2.69754        3.01595
H          4.57099        2.13992        3.73928
H          5.02617        0.43876        4.01042
H          3.89306        1.25635        5.12816
C          2.40501       -2.74489        4.46990
H          2.91025       -0.82500        5.32006
C          2.33839       -3.45622        5.82888
C          2.15614       -3.41844        3.25617
C          3.40528       -4.57976        5.95603
C          0.91346       -3.99546        6.13745
H          2.57122       -2.70398        6.60180
H          3.22566       -5.39267        5.23671
H          3.38361       -5.01657        6.96667
H          4.41777       -4.18796        5.77578
H          0.87968       -4.43587        7.14619
H          0.61104       -4.77440        5.42176
H          0.16601       -3.18911        6.09251
H          1.91956       -4.48273        3.27065
C          2.00309       -3.63514        0.75410
C          3.15726       -4.63959        0.48855
H          1.85012       -3.01330       -0.12893
H          1.06923       -4.20659        0.87750
H          4.11598       -4.12473        0.32563
H          2.93627       -5.23390       -0.41172
H          3.29374       -5.33846        1.32712
C          2.04729        1.53587       -2.11658
C          1.67598        1.34943       -3.49500
C          2.00982        2.86571       -1.57775
N          1.87892        0.08708       -4.20535
C          1.14526        2.43846       -4.22341
C          0.63618       -0.59722       -4.64140
C          2.85914        0.19148       -5.31557
H         -0.06173       -0.67831       -3.80578
H          0.88681       -1.61892       -4.96495
H          0.12738       -0.08625       -5.48779
H          3.12024       -0.82294       -5.65613
H          3.77633        0.68584       -4.97040
H          2.48385        0.75259       -6.19830
C          0.99959        3.72836       -3.67272
H          0.84179        2.25789       -5.25408
C          0.36153        4.88626       -4.45055
C          1.46935        3.91309       -2.36042
C         -1.14743        4.62571       -4.72225
C          1.12340        5.21899       -5.76329
H          0.42216        5.78087       -3.80773
H         -1.29424        3.75937       -5.38478
H         -1.60846        5.50143       -5.20563
H         -1.68752        4.42651       -3.78490
H          0.68018        6.10206       -6.24962
H          1.07920        4.38712       -6.48236
H          2.18367        5.43654       -5.56323
H          1.39562        4.90505       -1.91342
C          2.51155        3.23412       -0.18125
C          3.58146        4.35884       -0.15774
H          2.91424        2.35569        0.32741
H          1.64780        3.56156        0.41491
H          4.46915        4.09707       -0.75236
H          3.91004        4.54104        0.87830
H          3.19199        5.30964       -0.54792
