84
/cluster/projects/nn2506k/marcof/RuC_BondLength/evolutionary_desing/RUN28052021044732/Gen000/M00000029_I_DFT.out	Energy: -1347754.7802733
Ru         0.04573        0.42813        0.27843
C          0.16989        1.02809        1.99361
C          1.95777        0.16299       -0.05373
Cl        -0.68051       -1.85629        0.52811
Cl        -0.76071        2.44370       -0.77399
H          1.08581        1.34980        2.49898
H         -0.77061        1.15038        2.56445
N          2.84341       -0.68246        0.61606
N          2.67112        0.71634       -1.11659
C          4.22097       -0.64372        0.04624
C          2.65121       -1.51755        1.78236
C          4.06937        0.08770       -1.31565
H          4.60171       -1.66246       -0.07410
H          4.87831       -0.09705        0.73318
C          4.05589       -0.89015       -2.53276
C          5.19693        1.13733       -1.52554
C          5.43267       -1.54863       -2.80405
H          3.28971       -1.66225       -2.38230
H          3.77380       -0.32588       -3.43150
C          6.54501       -0.49200       -2.97911
H          5.70485       -2.23497       -1.98444
H          5.35041       -2.17067       -3.70998
C          6.57678        0.47455       -1.77503
H          6.36503        0.08094       -3.90503
H          7.52328       -0.98516       -3.09677
H          7.32033        1.27021       -1.94425
H          6.90742       -0.06809       -0.87295
H          5.26187        1.79707       -0.65240
H          4.95440        1.76261       -2.39733
C          2.82462       -0.99097        3.10895
C          2.38572       -2.91146        1.60406
C          2.62079       -1.82522        4.22996
C          3.29974        0.41072        3.38167
C          2.29487       -3.17301        4.03303
H          2.72310       -1.43055        5.23452
N          2.07297       -4.04801        5.22125
C          2.19505       -3.71967        2.74798
O          2.17257       -3.51784        6.38823
O          1.79800       -5.28675        5.01339
H          1.94899       -4.77314        2.63896
O          2.97834        0.80300        4.67978
O          3.93374        1.15208        2.59579
C          3.46744        2.12604        5.13317
H          4.55709        2.19467        5.01435
H          2.98278        2.92691        4.55985
H          3.18130        2.17510        6.18867
C          2.29444       -3.59818        0.24699
C          3.42713       -4.63672       -0.00881
H          2.28331       -2.85781       -0.55727
H          1.32710       -4.11829        0.19176
C          3.26435       -5.36297       -1.36220
H          3.43455       -5.38535        0.79963
H          4.41127       -4.13996        0.02700
H          4.07058       -6.09733       -1.51195
H          2.30622       -5.90373       -1.41094
H          3.29379       -4.65809       -2.20798
C          2.22916        1.78636       -1.99229
C          1.61481        1.49413       -3.25188
C          2.54148        3.14320       -1.65434
C          1.40471        2.51983       -4.19700
C          1.10998        0.15204       -3.71628
C          1.76673        3.83294       -3.87043
H          0.96612        2.29230       -5.16426
N          1.56378        4.91733       -4.87358
C          2.30663        4.14960       -2.61767
O          1.04334        4.60415       -6.00624
O          1.92600        6.11005       -4.55329
H          2.55469        5.18517       -2.40050
O          0.44750       -0.56484       -2.72822
O          1.19709       -0.24542       -4.89997
C         -0.22900       -1.81408       -3.18102
H         -0.98089       -1.56733       -3.94161
H          0.50628       -2.51004       -3.60636
H         -0.68892       -2.21355       -2.27530
C          3.12638        3.58667       -0.31476
C          2.25526        4.62354        0.45526
H          4.11120        4.04947       -0.50083
H          3.29938        2.72840        0.34003
C          2.97691        5.16563        1.70828
H          1.30210        4.15605        0.73729
H          2.00001        5.47030       -0.20050
H          3.89194        5.71772        1.43882
H          2.32326        5.85544        2.26445
H          3.26917        4.35035        2.38731
