97
/cluster/projects/nn2506k/marcof/RuC_BondLength/evolutionary_desing/RUN28052021044732/Gen000/M00000018_I_DFT.out	Energy: -1401493.4796785
Ru        -0.00940        0.51343        0.22986
C         -0.51418       -0.59843        1.57420
C          1.88234        0.09059       -0.14703
Cl        -1.31371       -0.52311       -1.52060
Cl         0.13607        2.56659        1.48119
H          0.02438       -1.42058        2.04491
H         -1.54605       -0.42458        1.94402
N          2.49347        0.49597       -1.33953
N          2.86113       -0.50851        0.64359
C          4.05409        0.42898       -1.27330
C          1.74728        0.80926       -2.56006
C          4.23972       -0.66994       -0.08974
C          4.55919        1.88520       -0.93385
C          4.70950       -0.04564       -2.61109
C          5.46061       -0.32556        0.82672
C          4.35209       -2.17125       -0.55510
C          5.94232       -1.31272        1.92692
H          6.30708       -0.19425        0.14013
H          5.29628        0.64887        1.29271
C          7.23448       -0.79565        2.61242
H          5.17841       -1.45998        2.69790
H          6.15226       -2.30435        1.50508
C          7.75862       -1.74478        3.71274
H          7.04651        0.19978        3.05240
H          8.02285       -0.65207        1.85204
H          8.67442       -1.34680        4.17712
H          7.99676       -2.73938        3.30299
H          7.01161       -1.88304        4.51055
C          5.66154       -2.74180       -1.18406
H          4.18585       -2.75692        0.35223
H          3.52032       -2.40741       -1.22134
C          5.71232       -4.28889       -1.07223
H          5.73520       -2.48136       -2.24712
H          6.55874       -2.32732       -0.70223
C          6.95576       -4.90411       -1.75128
H          4.80112       -4.71770       -1.52386
H          5.69285       -4.58487       -0.00976
H          6.95898       -6.00061       -1.64999
H          7.88800       -4.52488       -1.30200
H          6.98408       -4.66889       -2.82751
C          6.07316        2.26114       -0.93586
H          4.10357        2.51910       -1.69584
H          4.11997        2.20826        0.01464
C          6.26629        3.79465       -1.07890
H          6.56518        1.94813       -0.00667
H          6.61266        1.76365       -1.75525
C          7.74753        4.22763       -1.01423
H          5.70126        4.30856       -0.28210
H          5.82712        4.13614       -2.03117
H          7.84423        5.31933       -1.12113
H          8.33833        3.76027       -1.81884
H          8.20833        3.94481       -0.05385
C          4.78442        0.89848       -3.84329
H          5.74578       -0.29958       -2.35142
H          4.24045       -0.97937       -2.93088
C          5.58749        0.24398       -4.99774
H          3.78538        1.14791       -4.21637
H          5.26664        1.85049       -3.58557
C          5.69120        1.14377       -6.24906
H          5.11483       -0.71378       -5.27939
H          6.60447       -0.00544       -4.64508
H          6.26682        0.64943       -7.04731
H          6.19243        2.09675       -6.01599
H          4.69444        1.38190       -6.65292
C          1.40464        2.14484       -2.96945
C          1.36082       -0.27391       -3.41951
C          1.65725        3.44184       -2.22482
C          0.77693        2.37469       -4.21931
F          1.97795        3.35140       -0.87377
F          0.53722        4.31067       -2.29679
F          2.72958        4.19098       -2.83632
C          0.46198        1.31279       -5.07553
H          0.52507        3.39265       -4.50908
C          0.74114        0.00424       -4.66072
H         -0.01981        1.50520       -6.03422
H          0.45346       -0.83452       -5.29591
C          1.54238       -1.74232       -3.07938
H          2.45404       -2.15533       -3.53876
H          0.69296       -2.31361       -3.47370
H          1.57316       -1.92287       -2.00765
C          2.66695       -0.90204        2.03143
C          2.31254       -2.24210        2.42121
C          2.88123        0.06418        3.06837
C          1.86656       -3.38049        1.51919
C          2.28742       -2.61047        3.78947
F          1.52379       -3.05534        0.20298
F          0.70951       -4.02438        2.05117
F          2.84111       -4.42649        1.43674
C          2.54791       -1.66700        4.79315
H          2.02952       -3.63152        4.06420
C          2.80963       -0.34028        4.42494
H          2.51892       -1.96077        5.84250
H          2.97185        0.41241        5.19814
C          3.19971        1.52809        2.82629
H          2.53785        2.15507        3.43718
H          3.04998        1.83634        1.79494
H          4.23579        1.75401        3.12488
