67
/cluster/projects/nn2506k/marcof/RuC_BondLength/evolutionary_desing/RUN28052021044732/Gen000/M00000030_I_DFT.out	Energy: -1030479.5176964
Ru        -0.06027        0.07267       -0.04408
C         -0.35528       -0.58130        1.62861
C          1.82933       -0.09899       -0.25764
Cl        -0.88965       -1.79284       -1.30066
Cl        -0.33965        2.40202        0.44872
H          0.37108       -0.96721        2.34591
H         -1.41940       -0.57490        1.94255
N          2.47643        0.32782       -1.45169
N          2.84299       -0.61702        0.58329
C          3.88711        0.09446       -1.43186
C          1.81946        0.95537       -2.60795
C          4.14367       -0.54605       -0.02162
F          4.66380        1.27533       -1.61716
F          4.33933       -0.76299       -2.47936
F          5.07075        0.22559        0.73952
F          4.77664       -1.81786       -0.13220
C          1.73545        2.37790       -2.65606
C          1.37159        0.12543       -3.67740
C          2.34598        3.26611       -1.58333
C          1.07057        2.97422       -3.76604
H          2.65306        2.70812       -0.69842
H          1.63555        4.03075       -1.24969
H          3.24039        3.77779       -1.97301
C          0.96511        4.49328       -3.85198
C          0.50686        2.15663       -4.78869
H          0.93100        4.84318       -4.89034
H          1.81886        4.98755       -3.37532
H          0.05580        4.86382       -3.34748
C         -0.31566        2.79583       -5.90369
C          0.71001        0.74570       -4.77668
H          0.31417        3.09817       -6.75851
H         -0.84072        3.69212       -5.55341
H         -1.07763        2.10824       -6.28800
C          0.22133       -0.10887       -5.94182
H          0.83506       -1.00635       -6.07428
H          0.24793        0.44056       -6.89043
H         -0.81723       -0.44907       -5.78576
C          1.59957       -1.37797       -3.69054
H          1.93956       -1.76070       -2.72821
H          2.36607       -1.64215       -4.43642
H          0.67987       -1.91768       -3.94289
C          2.73344       -1.18399        1.92771
C          2.55259       -2.59021        2.06024
C          2.88751       -0.31564        3.04604
C          2.34356       -3.48708        0.84829
C          2.53828       -3.14443        3.37364
H          2.18371       -2.91914       -0.06920
H          1.46394       -4.13162        0.98319
H          3.21355       -4.14019        0.68119
C          2.38762       -4.65021        3.56542
C          2.67356       -2.29470        4.51140
H          3.05396       -5.02196        4.35519
H          2.62592       -5.20829        2.65528
H          1.35804       -4.92387        3.85397
C          2.60480       -2.89183        5.91320
C          2.87045       -0.89097        4.35018
H          1.96841       -3.78338        5.94683
H          2.20150       -2.17914        6.64157
H          3.60457       -3.19253        6.27225
C          3.07217       -0.00791        5.57754
H          3.72344       -0.49292        6.31686
H          2.11625        0.21332        6.08299
H          3.53250        0.95172        5.32492
C          3.02974        1.19045        2.87561
H          2.32623        1.72798        3.52649
H          2.83052        1.51620        1.85366
H          4.04563        1.52666        3.13304
