70
/cluster/projects/nn2506k/marcof/RuC_BondLength/evolutionary_desing/RUN28052021044948/Gen000/M00000008_I_DFT.out	Energy: -1117399.6293759
Ru        -0.10438       -0.28337       -0.20686
C         -0.37695       -0.71322        1.53897
C          1.80897       -0.22679       -0.36489
Cl        -0.56971       -2.43271       -1.17833
Cl        -0.68519        2.04748       -0.08675
H          0.36118       -0.86876        2.32786
H         -1.44519       -0.82071        1.82111
N          2.44048        0.18405       -1.55273
N          2.84219       -0.55732        0.54994
C          3.91725        0.15664       -1.45207
C          1.78505        0.92424       -2.64257
C          4.14237       -0.27818        0.01831
C          4.66350       -0.71811       -2.49953
H          4.33473        1.16165       -1.58784
F          4.82251        0.79526        0.72281
F          5.03947       -1.37314        0.18528
F          4.43470       -0.24195       -3.80666
F          6.05668       -0.62689       -2.29398
F          4.31851       -2.07783       -2.48645
C          1.80376        2.34960       -2.59011
C          1.22527        0.21372       -3.74320
C          2.44885        3.11066       -1.43960
C          1.18084        3.07684       -3.64150
H          2.67442        2.47472       -0.58187
H          1.77757        3.89427       -1.06896
H          3.38427        3.60307       -1.75560
C          1.19836        4.60137       -3.61879
C          0.51956        2.38383       -4.69697
H          1.16413        5.02572       -4.62889
H          2.10144        4.99383       -3.13707
H          0.33436        5.00449       -3.06227
C         -0.25085        3.17288       -5.75102
C          0.57610        0.96228       -4.77010
H         -0.74115        4.05201       -5.31480
H         -1.03424        2.56939       -6.22105
H          0.41128        3.53447       -6.55704
C         -0.05225        0.24194       -5.95927
H          0.32183       -0.77918       -6.07212
H          0.15073        0.76670       -6.90266
H         -1.14860        0.17344       -5.85305
C          1.33771       -1.29688       -3.86795
H          0.35685       -1.76274       -4.01981
H          1.76638       -1.75926       -2.98009
H          1.97318       -1.56399       -4.72641
C          2.74904       -1.14114        1.89045
C          2.75825       -2.55907        2.01538
C          2.73489       -0.26864        3.01656
C          2.76127       -3.47023        0.79691
C          2.74819       -3.11841        3.32701
H          2.61166       -2.92604       -0.13537
H          1.95746       -4.21612        0.86107
H          3.71601       -4.01152        0.71134
C          2.77816       -4.63205        3.51306
C          2.72323       -2.26668        4.47042
H          3.45549       -4.92348        4.32709
H          3.11425       -5.15345        2.61240
H          1.77945       -5.02949        3.76345
C          2.66822       -2.87787        5.86693
C          2.74673       -0.84864        4.31835
H          2.13799       -3.83707        5.87099
H          2.15585       -2.22260        6.58049
H          3.68060       -3.06509        6.26568
C          2.79100        0.04799        5.55203
H          1.79281        0.17110        6.00708
H          3.16543        1.04958        5.31924
H          3.44910       -0.36905        6.32557
C          2.65566        1.24371        2.85663
H          3.61303        1.72549        3.10666
H          1.88787        1.66848        3.51811
H          2.39938        1.53863        1.83784
