74
/cluster/projects/nn2506k/marcof/RuC_BondLength/evolutionary_desing/RUN28052021044732/Gen000/M00000005_I_DFT.out	Energy: -884099.4023940
Ru        -0.18607       -0.09810       -0.16713
C         -0.51543       -0.92003        1.41879
C          1.75314       -0.18899       -0.36367
Cl        -0.85423       -1.86149       -1.67534
Cl        -0.41463        2.19402        0.56119
H          0.19530       -1.34978        2.12812
H         -1.59068       -0.97383        1.69489
N          2.39296        0.42932       -1.43706
N          2.74023       -0.79009        0.41346
C          3.85975        0.20426       -1.44612
C          1.79229        1.15347       -2.55063
C          4.14364       -0.42188       -0.05786
H          4.13975       -0.46450       -2.27076
H          4.39691        1.15161       -1.58259
C          5.15929       -1.54039       -0.08707
H          4.51358        0.35775        0.62526
C          5.30905       -2.59965       -0.96965
S          6.48706       -1.56792        1.15037
C          6.44329       -3.44232       -0.69795
H          4.62478       -2.78835       -1.79410
C          7.18361       -3.03272        0.39661
H          6.69897       -4.31538       -1.29560
H          8.07992       -3.47194        0.82112
C          1.71340        2.57582       -2.48084
C          1.42555        0.44079       -3.73010
C          2.29936        3.34272       -1.30428
C          1.09784        3.27772       -3.55646
H          2.64999        2.67366       -0.51612
H          1.55602        4.00438       -0.84379
H          3.14899        3.96587       -1.63081
C          0.96131        4.79609       -3.50031
C          0.59485        2.56192       -4.68212
H          1.11219        5.25625       -4.48591
H          1.68443        5.25149       -2.81650
H         -0.04223        5.09360       -3.14986
C         -0.17079        3.30373       -5.77389
C          0.81587        1.15886       -4.79887
H          0.49823        3.66359       -6.57546
H         -0.69769        4.17808       -5.37484
H         -0.92469        2.66161       -6.24460
C          0.38948        0.42259       -6.06515
H          0.98106       -0.48365       -6.23309
H          0.49815        1.04967       -6.95910
H         -0.66771        0.10944       -6.00969
C          1.70958       -1.04703       -3.87899
H          0.81576       -1.60000       -4.18966
H          2.03865       -1.49828       -2.94145
H          2.49097       -1.21674       -4.63952
C          2.60969       -1.46140        1.69538
C          2.40179       -2.87055        1.72723
C          2.77280       -0.69799        2.88897
C          2.16793       -3.65909        0.44700
C          2.36971       -3.52905        2.99236
H          2.13012       -3.00874       -0.42705
H          1.20982       -4.19752        0.48411
H          2.96097       -4.40411        0.28362
C          2.15892       -5.03894        3.06648
C          2.54044       -2.78129        4.19443
H          2.89185       -5.51422        3.73442
H          2.25250       -5.52041        2.08958
H          1.15714       -5.28982        3.45483
C          2.47936       -3.48152        5.54873
C          2.76264       -1.37384        4.14259
H          1.91554       -4.41902        5.50454
H          2.00013       -2.85186        6.30904
H          3.48918       -3.72670        5.92217
C          2.98391       -0.59311        5.43478
H          3.50262        0.35507        5.26024
H          3.58833       -1.16432        6.15157
H          2.02952       -0.35298        5.93524
C          2.90993        0.81905        2.84142
H          2.64169        1.22493        1.86392
H          3.93412        1.14793        3.08522
H          2.23827        1.29623        3.56802
