75
/cluster/projects/nn2506k/marcof/RuC_BondLength/evolutionary_desing/RUN28052021044948/Gen000/M00000019_I_DFT.out	Energy: -1532988.2058062
Ru         0.29785       -0.08220       -0.13929
C          0.37835        0.03343        1.68136
C          2.24607        0.02592       -0.35927
Cl        -0.29615       -2.35424       -0.63545
Cl        -0.66711        2.01971       -0.81842
H          1.27780        0.17333        2.28902
H         -0.58664       -0.03279        2.21911
N          2.98796        1.21038       -0.49386
N          3.18846       -1.00785       -0.30053
C          4.44156        0.95827       -0.11527
C          2.53465        2.53684       -0.81249
C          5.57963        1.82854       -0.66489
C          4.58786       -0.48315       -0.58781
H          4.47563        1.01204        0.97940
C          6.90239        1.22069       -0.10658
H          5.48526        2.87149       -0.32861
H          5.59737        1.82458       -1.76233
C          7.05153       -0.29709       -0.40253
H          6.94189        1.38620        0.98303
H          7.75754        1.76365       -0.54010
C          5.82020       -1.13689        0.05291
H          7.20560       -0.44609       -1.48470
H          7.95316       -0.68066        0.10084
H          5.94281       -2.17656       -0.28347
H          5.75054       -1.13712        1.14892
H          4.71173       -0.52516       -1.67742
C          2.37930        2.92388       -2.18190
C          2.30989        3.52487        0.20011
C          2.53456        1.94370       -3.33331
C          2.07698        4.25390       -2.52866
F          3.87621        1.49916       -3.50379
F          2.17576        2.51254       -4.57608
F          1.74883        0.77662       -3.21336
C          1.90459        5.23154       -1.53071
H          1.96869        4.53512       -3.57053
C          1.99726        4.84836       -0.18046
C          1.59751        6.66443       -1.84339
H          1.82500        5.61318        0.57257
O          1.52853        6.89157       -3.21387
O          1.42357        7.55795       -0.98338
C          1.21235        8.27315       -3.64565
H          0.22894        8.57507       -3.26106
H          1.97841        8.97066       -3.28130
H          1.20956        8.22630       -4.73944
C          2.33912        3.21945        1.68952
C          1.27839        3.88004        2.56577
O          3.19427        2.44826        2.19591
H          1.31684        3.43029        3.56485
H          1.45975        4.96103        2.67172
H          0.27671        3.75657        2.13131
C          2.97244       -2.43127       -0.19584
C          2.95964       -3.09993        1.06380
C          2.84466       -3.22484       -1.38096
C          3.14239       -2.45945        2.42666
C          2.77604       -4.49979        1.13528
F          3.43832       -1.08987        2.46341
F          4.20942       -3.09143        3.13647
F          1.99573       -2.63291        3.25177
C          2.62339       -5.26692       -0.03204
H          2.75387       -4.99607        2.10162
C          2.65884       -4.61651       -1.28121
C          2.42308       -6.75251       -0.00639
H          2.53668       -5.22264       -2.17675
O          2.36799       -7.24562        1.29397
O          2.31528       -7.47230       -1.02469
C          2.15458       -8.70402        1.44396
H          1.19642       -8.99520        0.99247
H          2.97042       -9.25995        0.96249
H          2.14692       -8.87201        2.52589
C          2.94492       -2.65689       -2.79570
C          1.82198       -2.96993       -3.77351
O          3.95973       -2.00434       -3.14830
H          1.91628       -2.31730       -4.64909
H          1.88861       -4.01572       -4.11655
H          0.83985       -2.84086       -3.30218
