78
/cluster/projects/nn2506k/marcof/RuC_BondLength/evolutionary_desing/RUN28052021044732/Gen000/M00000016_I_DFT.out	Energy: -1043897.7936544
Ru        -0.26361        0.09330        0.06136
C         -0.14776       -0.00912        1.87367
C          1.62349        0.39974       -0.36787
Cl        -0.70123       -2.23795       -0.41884
Cl        -1.28334        2.24087       -0.30409
H          0.76104       -0.06592        2.47718
H         -1.11075       -0.07575        2.42039
N          2.61015        1.08605        0.33986
N          2.22207       -0.06280       -1.55020
C          3.94913        1.02854       -0.33123
C          2.56265        1.69390        1.64775
C          3.70019        0.26133       -1.64299
H          4.66505        0.50547        0.31274
H          4.31658        2.04064       -0.52514
C          4.10495        1.01413       -2.91840
H          4.22951       -0.70014       -1.64729
C          4.47747        0.29215       -4.07829
N          4.11594        2.37911       -2.88832
C          4.84969        0.99577       -5.24138
H          4.47123       -0.79628       -4.06850
C          4.84745        2.40588       -5.21622
H          5.13600        0.45572       -6.14507
C          4.47811        3.04878       -4.01522
H          5.12770        2.99159       -6.09205
H          4.47087        4.13855       -3.94527
C          2.07417        3.03658        1.92910
C          3.08421        0.98260        2.76155
N          1.56377        3.91855        0.97386
C          2.08173        3.48435        3.28666
C          0.58439        4.94744        1.35763
C          1.99326        4.00954       -0.43062
H         -0.07613        4.58088        2.15292
H         -0.04820        5.16610        0.48795
H          1.05942        5.89295        1.68745
H          2.18569        5.06927       -0.67369
H          1.22328        3.62977       -1.11529
H          2.91833        3.46973       -0.61268
C          2.55959        2.71391        4.37528
H          1.75316        4.49877        3.47175
N          2.53750        3.20282        5.68819
C          3.10028        1.42451        4.08532
C          3.14010        2.42499        6.77955
C          1.93935        4.51086        5.98375
H          4.20799        2.21574        6.59425
H          2.62428        1.46082        6.93411
H          3.07105        2.99268        7.71466
H          0.90252        4.57278        5.61279
H          2.51216        5.34546        5.53909
H          1.91264        4.66453        7.06889
H          3.50849        0.78086        4.85511
Cl         3.73623       -0.72313        2.53095
C          1.63573       -0.89300       -2.56772
C          2.03762       -2.26972       -2.75841
C          0.75524       -0.36397       -3.54330
N          3.04435       -2.87285       -1.94070
C          1.48984       -3.01244       -3.83028
C          2.82268       -3.03792       -0.48417
C          3.83310       -3.98240       -2.50581
H          2.29883       -3.98760       -0.26520
H          2.20852       -2.23418       -0.08752
H          3.79117       -3.04418        0.03857
H          4.11673       -3.76785       -3.54455
H          3.30959       -4.96078       -2.48017
H          4.75422       -4.09149       -1.91277
C          0.54856       -2.47015       -4.74973
H          1.76133       -4.05823       -3.90731
N         -0.01043       -3.24656       -5.77185
C          0.19493       -1.09959       -4.59208
C          0.33744       -4.66766       -5.90143
C         -1.06046       -2.68359       -6.63363
H         -0.17009       -5.08955       -6.77658
H          0.03102       -5.25511       -5.01694
H          1.42192       -4.80879       -6.04794
H         -1.92917       -2.33507       -6.04839
H         -1.41270       -3.45209       -7.33121
H         -0.68768       -1.83470       -7.23245
H         -0.48715       -0.60170       -5.27138
Cl         0.33611        1.40794       -3.52917
