72
/cluster/projects/nn2506k/marcof/RuC_BondLength/evolutionary_desing/RUN28052021044948/Gen000/M00000001_I_DFT.out	Energy: -1173894.7338086
Ru        -0.05674       -0.54667        0.48603
C          0.39650       -0.88603        2.21260
C          1.73609       -0.07314       -0.12371
Cl        -0.39818       -2.81718       -0.24868
Cl        -1.14562        1.59106        0.48859
H          1.41530       -1.01987        2.58765
H         -0.42788       -1.07364        2.92891
N          2.74607        0.58339        0.58182
N          2.27318       -0.42017       -1.36335
C          3.98587        0.74335       -0.23946
C          2.61294        1.44920        1.72036
C          3.78535       -0.28953       -1.36468
H          4.86798        0.51662        0.36489
H          4.03989        1.77246       -0.62451
C          4.46928        0.08474       -2.67647
H          4.20423       -1.25741       -1.06166
C          4.11210        1.21121       -3.45581
N          5.52328       -0.72747       -3.00240
C          4.86231        1.50085       -4.61336
H          3.25563        1.81845       -3.17629
C          5.95111        0.67114       -4.95768
H          4.60019        2.35988       -5.23318
C          6.24118       -0.42674       -4.12002
H          6.55647        0.86486       -5.84397
H          7.07411       -1.09744       -4.34162
C          2.09277        2.75148        1.53898
C          3.06963        1.14044        3.04160
C          1.91132        3.68790        2.55651
F          1.77133        3.16255        0.24028
C          2.28694        3.35326        3.89023
H          1.48418        4.64906        2.28900
N          2.09556        4.24841        4.94385
C          2.88385        2.06978        4.09050
C          1.45797        5.55139        4.69721
C          2.51331        3.89600        6.30830
H          0.45323        5.43440        4.25742
H          2.05949        6.18269        4.02013
H          1.34696        6.08961        5.64505
H          3.60052        3.71519        6.37281
H          1.99083        2.99692        6.67911
H          2.27466        4.72201        6.98733
H          3.23152        1.79842        5.08075
C          3.81344       -0.14117        3.35503
C          3.69508       -0.74825        4.75763
O          4.54437       -0.70226        2.49543
H          4.37486       -0.23431        5.45717
H          2.67703       -0.67801        5.16335
H          4.00551       -1.79870        4.70740
C          1.58423       -1.08352       -2.43015
C          1.90560       -2.42199       -2.74974
C          0.55932       -0.48346       -3.22808
C          1.31746       -3.16576       -3.76913
F          2.86824       -3.08415       -1.97056
C          0.27581       -2.58270       -4.54760
H          1.64317       -4.19301       -3.89757
N         -0.35849       -3.29883       -5.56516
C         -0.08774       -1.23824       -4.23281
C         -1.48019       -2.70396       -6.30566
C          0.01293       -4.69843       -5.82282
H         -1.17557       -1.78893       -6.84192
H         -2.32640       -2.45056       -5.64267
H         -1.84367       -3.41864       -7.05252
H         -0.19388       -5.34866       -4.95441
H          1.08216       -4.79216       -6.07637
H         -0.56380       -5.07913       -6.67326
H         -0.87516       -0.75698       -4.80146
C          0.16994        0.98326       -3.12581
C         -1.28898        1.37786       -3.36756
O          1.02789        1.87643       -2.90409
H         -1.46783        1.52564       -4.44589
H         -1.99632        0.62587       -2.99736
H         -1.47234        2.33223       -2.86229
