90
/cluster/projects/nn2506k/marcof/RuC_BondLength/evolutionary_desing/RUN28052021044948/Gen000/M00000027_I_DFT.out	Energy: -1176910.6771101
Ru        -0.51042        0.42723        0.24128
C         -0.53529        1.06540        1.94240
C          1.37192        0.47314       -0.24622
Cl        -0.92274       -1.90182        0.68614
Cl        -1.17296        2.41640       -0.95900
H          0.30922        1.34186        2.57926
H         -1.54698        1.18241        2.38556
N          2.46995        1.03364        0.39187
N          1.81211       -0.02038       -1.49587
C          3.73704        0.81119       -0.37046
C          2.57785        1.77266        1.64135
C          3.23849        0.37135       -1.77382
H          4.33963        0.03490        0.11933
H          4.32290        1.73623       -0.40999
C          3.45994        1.47166       -2.81900
H          3.79866       -0.50319       -2.12101
C          2.56468        2.53727       -3.05776
N          4.67591        1.37858       -3.44263
C          2.94555        3.55197       -3.95853
H          1.59125        2.56081       -2.57682
C          4.20032        3.47402       -4.59868
H          2.26614        4.38039       -4.16306
C          5.02569        2.36532       -4.31338
H          4.52844        4.23936       -5.30268
H          6.00009        2.25178       -4.79348
C          2.37471        3.18813        1.64395
C          3.01279        1.11174        2.83107
C          1.99640        3.96217        0.39573
C          2.54416        3.89552        2.85667
H          2.73894        3.83013       -0.40344
H          1.93474        5.03620        0.61439
H          1.02743        3.64434       -0.00544
C          2.93695        3.26510        4.05766
H          2.36725        4.97252        2.85570
C          3.14039        4.06117        5.34002
C          3.17618        1.87487        4.01420
C          4.59051        4.60539        5.50613
H          2.90145        3.43120        6.21219
H          2.44199        4.91343        5.36463
C          4.78355        5.41110        6.80920
H          4.84019        5.23947        4.63908
H          5.29802        3.75968        5.48658
H          4.57486        4.79318        7.69719
H          5.81755        5.78033        6.89414
H          4.11251        6.28429        6.84385
H          3.49220        1.35577        4.91986
C          3.34463       -0.35561        2.94695
C          4.70530       -0.76002        2.98684
C          2.34435       -1.33484        3.16821
C          5.05635       -2.10430        3.23273
H          5.49055       -0.01604        2.83922
C          4.05019       -3.06909        3.45725
H          6.10895       -2.39275        3.25902
C          2.69489       -2.67776        3.42315
H          4.31868       -4.10785        3.65793
H          1.90604       -3.41271        3.59076
H          1.29256       -1.05741        3.14526
C          1.27101       -1.20619       -2.18212
C          1.62814       -2.49317       -1.65796
C          0.49009       -1.13132       -3.37612
C          2.54629       -2.66766       -0.46261
C          1.12277       -3.65662       -2.27452
H          2.57425       -3.71962       -0.15337
H          2.21669       -2.08688        0.40080
H          3.58191       -2.37389       -0.69503
C          0.28349       -3.60918       -3.40651
H          1.38081       -4.62507       -1.84280
C         -0.25152       -4.87916       -4.05411
C         -0.00154       -2.33821       -3.94089
C          0.70542       -5.47883       -5.12656
H         -1.22445       -4.67280       -4.52858
H         -0.43337       -5.64242       -3.27995
C          0.15090       -6.76631       -5.77450
H          1.68277       -5.69081       -4.66157
H          0.89093       -4.72271       -5.90763
H         -0.81058       -6.57844       -6.27876
H          0.85131       -7.16283       -6.52637
H         -0.01457       -7.55426       -5.02220
H         -0.61776       -2.26231       -4.83747
C          0.17077        0.08790       -4.20857
C          1.01955        0.41504       -5.29820
C         -1.05922        0.77675       -4.08591
C          0.65731        1.41241       -6.22656
H          1.95839       -0.12558       -5.42795
C         -0.56536        2.10383       -6.08385
H          1.32529        1.64345       -7.05873
C         -1.41948        1.78319       -5.00725
H         -0.85165        2.87287       -6.80408
H         -2.36844        2.30766       -4.88350
H         -1.73873        0.53094       -3.27262
