103
/cluster/projects/nn2506k/marcof/RuC_BondLength/evolutionary_desing/RUN28052021044732/Gen000/M00000028_I_DFT.out	Energy: -1217862.0323625
Ru        -0.18704        0.23869        0.12015
C         -0.22735        0.63352        1.89287
C          1.75063        0.09515       -0.17311
Cl        -1.03287       -2.01640        0.10764
Cl        -0.85579        2.35700       -0.81532
H          0.61787        0.96278        2.49950
H         -1.22535        0.62396        2.37693
N          2.32308        0.32190       -1.43237
N          2.80938       -0.19305        0.70935
C          3.82200        0.21592       -1.43202
C          1.63197        0.62547       -2.68477
C          4.47221       -0.91037       -2.28551
C          4.14579        0.14481        0.08336
H          4.22609        1.15091       -1.82847
C          5.95127       -0.95204       -1.95397
H          3.98842       -1.87050       -2.08035
H          4.31198       -0.70169       -3.35260
C          6.35735       -0.87057       -0.66178
H          6.67651       -1.04600       -2.76580
C          5.33408       -0.78959        0.45857
H          7.41642       -0.90553       -0.39599
H          4.95930       -1.79909        0.66524
H          5.80238       -0.43749        1.38854
H          4.41984        1.15679        0.41618
C          0.88458       -0.42151       -3.33815
C          1.71930        1.91894       -3.32329
C          0.20612       -0.16578       -4.55494
C          0.86258       -1.88915       -2.93861
C          0.31999        1.05724       -5.23305
H         -0.37684       -0.96562       -4.99409
C         -0.36570        1.34628       -6.59674
C          1.09918        2.04187       -4.59631
C          0.71756        1.71709       -7.66030
C         -1.16375        0.12391       -7.13248
C         -1.36452        2.53720       -6.43015
H          0.24121        1.92779       -8.62998
H          1.42955        0.89005       -7.80258
H          1.29123        2.60907       -7.37256
H         -1.97449       -0.16925       -6.44914
H         -0.51648       -0.75008       -7.30022
H         -1.62543        0.38049       -8.09706
H         -0.85851        3.45821       -6.10995
H         -2.13405        2.30184       -5.68023
H         -1.86880        2.74704       -7.38592
H          1.20534        2.99219       -5.10548
C         -0.36073       -2.74172       -3.29899
O          1.85563       -2.45460       -2.41276
H         -1.30601       -2.19284       -3.22296
H         -0.25788       -3.13644       -4.32354
H         -0.38632       -3.59495       -2.61380
C          2.42709        3.25729       -2.85481
C          1.51034        4.49315       -3.18355
C          2.72552        3.40112       -1.33881
C          3.76097        3.41662       -3.66159
H          1.41400        4.70270       -4.25689
H          1.95159        5.39250       -2.73035
H          0.50790        4.35622       -2.75960
H          3.09867        4.41907       -1.15249
H          3.49569        2.72284       -0.97349
H          1.82858        3.26166       -0.73362
H          3.58346        3.41279       -4.74668
H          4.47797        2.61254       -3.44143
H          4.24054        4.37300       -3.40200
C          2.80182       -0.41942        2.15565
C          3.14342        0.70398        2.99369
C          2.64781       -1.70792        2.78269
C          3.25293        0.57659        4.39574
C          3.32469        2.12414        2.49330
C          2.98371       -0.64086        5.04784
H          3.51153        1.45698        4.97578
C          3.00604       -0.80719        6.59250
C          2.70067       -1.73363        4.20727
C          4.07417       -1.87524        6.99366
C          3.35512        0.51769        7.32812
C          1.59545       -1.27221        7.07949
H          5.07855       -1.57320        6.66049
H          3.85772       -2.86066        6.55897
H          4.09920       -1.99385        8.08759
H          2.62290        1.31114        7.11687
H          4.35648        0.88717        7.05998
H          3.34921        0.34747        8.41446
H          0.82512       -0.53113        6.81886
H          1.59256       -1.39771        8.17301
H          1.30099       -2.23165        6.63260
H          2.53306       -2.69342        4.68351
C          4.55179        2.91142        2.97500
O          2.47759        2.67748        1.74789
H          4.74834        3.72805        2.26906
H          4.34930        3.37078        3.95617
H          5.44245        2.27791        3.08186
C          2.48133       -3.14768        2.15913
C          3.70583       -4.02034        2.61360
C          1.16456       -3.80130        2.70415
C          2.41728       -3.24642        0.61686
H          3.77771       -4.13182        3.70367
H          4.65573       -3.59449        2.25780
H          3.60895       -5.02850        2.18405
H          1.05657       -4.80763        2.27291
H          0.28750       -3.21529        2.40704
H          1.15641       -3.91332        3.79679
H          1.57526       -2.70008        0.20007
H          2.28517       -4.30281        0.34060
H          3.33120       -2.90337        0.12697
