93
/cluster/projects/nn2506k/marcof/RuC_BondLength/evolutionary_desing/RUN28052021044948/Gen000/M00000006_I_DFT.out	Energy: -1120054.5642962
Ru        -0.05943        0.25678       -0.21858
C         -0.30134       -0.24866        1.52633
C          1.87609        0.25791       -0.33703
Cl        -0.80937       -1.95101       -1.03498
Cl        -0.45430        2.65180        0.05469
H          0.45917       -0.46796        2.28281
H         -1.34469       -0.39236        1.87633
N          2.82632        0.90503        0.45235
N          2.55993       -0.21385       -1.47114
C          4.18250        0.87989       -0.16489
C          2.71624        1.42126        1.80168
C          3.91719        0.45418       -1.63083
H          4.80986        0.15461        0.36840
H          4.64304        1.87108       -0.10256
C          3.86675        1.66428       -2.62222
C          5.08290       -0.38526       -2.22173
C          5.35081        1.97636       -2.96240
H          3.32404        2.52261       -2.20701
H          3.33446        1.34807       -3.52976
C          6.14845        0.67190       -2.61723
H          5.46079        2.25213       -4.02139
H          5.72585        2.82786       -2.37543
H          6.83983        0.85437       -1.78048
H          6.75954        0.32401       -3.46275
H          4.73705       -0.91665       -3.11870
H          5.47067       -1.13047       -1.51811
C          2.77752        0.54544        2.93748
C          2.61726        2.82553        2.01789
C          2.62046        1.08346        4.24075
C          3.09525       -0.92934        2.83981
C          2.45504        2.46378        4.47968
H          2.64889        0.39992        5.08238
C          2.25501        3.06269        5.89919
C          2.47919        3.30245        3.34328
C          0.87293        3.79100        5.95618
C          2.27372        1.98017        7.01509
C          3.39653        4.08594        6.20296
H          0.80657        4.60686        5.22355
H          0.71211        4.22389        6.95538
H          0.05014        3.09054        5.74966
H          3.23465        1.44529        7.05566
H          1.46857        1.24157        6.88585
H          2.12415        2.45911        7.99357
H          4.38231        3.59767        6.17191
H          3.26147        4.51875        7.20590
H          3.40917        4.91554        5.48273
H          2.36736        4.37872        3.47117
C          2.57732       -1.88509        3.92255
O          3.82067       -1.39515        1.91781
H          3.26315       -1.88923        4.78577
H          1.57577       -1.62365        4.28647
H          2.56533       -2.89970        3.50665
C          2.66261        3.86057        0.89757
C          3.95056        4.72902        0.90766
H          1.78938        4.52061        0.99784
H          2.54512        3.37413       -0.07354
H          4.86159        4.12140        0.79462
H          4.05131        5.30018        1.84258
H          3.92118        5.45282        0.07810
C          2.10514       -1.18705       -2.44639
C          2.56872       -2.52866       -2.37660
C          1.30146       -0.79569       -3.56544
C          3.30078       -3.10765       -1.16813
C          2.31085       -3.39663       -3.47021
C          2.48304       -4.20328       -0.43017
H          3.54085       -2.32404       -0.44672
H          4.25726       -3.54879       -1.49800
H          1.52138       -3.80472       -0.08309
H          3.05264       -4.55920        0.44218
H          2.27544       -5.07033       -1.07483
C          1.60042       -3.01168       -4.62511
H          2.69167       -4.41205       -3.39120
C          1.32992       -3.96715       -5.81991
C          1.09079       -1.69214       -4.63643
C          1.88829       -3.33354       -7.13468
C          2.00120       -5.35756       -5.63675
C         -0.21115       -4.19002       -5.96089
H          1.69152       -3.99781       -7.98997
H          2.97583       -3.17868       -7.06660
H          1.42342       -2.36257       -7.35589
H          1.61000       -5.89008       -4.75758
H          3.09401       -5.27717       -5.53627
H          1.79561       -5.98363       -6.51726
H         -0.63057       -4.62319       -5.04117
H         -0.42142       -4.87868       -6.79359
H         -0.74702       -3.25167       -6.16045
H          0.47525       -1.36400       -5.47064
C          0.52182        0.47703       -3.55885
C          0.20869        1.21153       -4.85851
O          0.04638        0.94278       -2.48070
H          1.03215        1.15647       -5.58256
H         -0.68901        0.77737       -5.32894
H         -0.02071        2.25799       -4.62396
