87
/cluster/projects/nn2506k/marcof/RuC_BondLength/evolutionary_desing/RUN28052021044948/Gen000/M00000020_I_DFT.out	Energy: -1071239.6050881
Ru        -0.20323        0.18221        0.03808
C         -0.57068       -0.89163        1.45584
C          1.73280        0.05197       -0.18998
Cl        -1.01534       -1.26345       -1.72039
Cl        -0.30050        2.31025        1.18700
H          0.11371       -1.49333        2.05776
H         -1.64481       -0.92634        1.73940
N          2.37933        0.74442       -1.21947
N          2.70621       -0.61202        0.54856
C          3.86992        0.48647       -1.24415
C          1.73604        1.29965       -2.41457
C          4.11032       -0.23681        0.11402
C          4.77427        1.69993       -1.48077
H          4.06225       -0.21004       -2.06939
C          5.13743       -1.37113        0.05892
H          4.48322        0.48710        0.84932
C          6.20042       -1.37132        0.99416
C          5.10558       -2.39846       -0.91634
C          7.20205       -2.36369        0.96271
H          6.24943       -0.58816        1.75313
C          7.15793       -3.38031       -0.01399
H          8.01213       -2.34066        1.69366
C          6.10326       -3.39250       -0.95291
H          7.93198       -4.14910       -0.04509
H          6.05861       -4.17478       -1.71291
H          4.29971       -2.43903       -1.64792
C          4.98739        2.70911       -0.50939
C          5.46727        1.79982       -2.71127
C          5.86634        3.78088       -0.76083
H          4.45934        2.67893        0.44358
C          6.55229        3.86737       -1.99223
H          6.01288        4.54920        0.00050
C          6.34731        2.87133       -2.96964
H          7.23408        4.69742       -2.18554
H          6.87014        2.92587       -3.92604
H          5.32010        1.03398       -3.47526
C          1.40460        2.68588       -2.46298
C          1.54632        0.45256       -3.54873
C          1.71477        3.62287       -1.30819
C          0.78096        3.20254       -3.63822
H          2.08805        3.08338       -0.44008
H          0.82080        4.16756       -0.98067
H          2.47399        4.36362       -1.60383
C          0.39889        4.67843       -3.71261
C          0.51460        2.34838       -4.74590
H          0.60748        5.10172       -4.70453
H          0.94361        5.28420       -2.98290
H         -0.67685        4.82567       -3.51358
C         -0.23999        2.88141       -5.96090
C          0.94700        0.99124       -4.72122
H         -0.86994        3.73994       -5.70521
H         -0.90009        2.11669       -6.38922
H          0.44640        3.20660       -6.76247
C          0.74713        0.10024       -5.94335
H          1.54397       -0.64721       -6.03881
H          0.73618        0.67762       -6.87501
H         -0.20689       -0.45241       -5.88560
C          1.95174       -1.01475       -3.53574
H          1.15024       -1.64441       -3.93820
H          2.14566       -1.37829       -2.52622
H          2.85131       -1.18946       -4.15137
C          2.56492       -1.33131        1.80702
C          2.33609       -2.73820        1.78106
C          2.74633       -0.62577        3.03281
C          2.05274       -3.46597        0.47477
C          2.31750       -3.45425        3.01445
H          1.96042       -2.77308       -0.36151
H          1.10709       -4.02449        0.53308
H          2.84671       -4.18816        0.23339
C          2.10218       -4.96539        3.01956
C          2.50372       -2.76348        4.24763
H          2.81288       -5.46872        3.69014
H          2.22946       -5.40613        2.02700
H          1.08803       -5.23153        3.36400
C          2.44270       -3.52392        5.56923
C          2.73505       -1.35704        4.25565
H          3.45050       -3.80822        5.91975
H          1.85735       -4.44583        5.48797
H          1.98469       -2.92044        6.36282
C          2.96526       -0.63533        5.58030
H          3.48945        0.31644        5.44691
H          3.56653       -1.24141        6.27063
H          2.01301       -0.41043        6.09166
C          2.90280        0.88942        3.05773
H          3.92922        1.19328        3.32449
H          2.23051        1.33869        3.80081
H          2.64257        1.34448        2.10098
