76
/cluster/projects/nn2506k/marcof/RuC_BondLength/evolutionary_desing/RUN28052021044948/Gen000/M00000013_I_DFT.out	Energy: -936390.0139731
Ru        -0.20011       -0.13535       -0.19248
C         -0.52103       -0.92372        1.41210
C          1.74024       -0.21234       -0.38286
Cl        -0.83760       -1.93393       -1.67369
Cl        -0.46993        2.16547        0.48959
H          0.19647       -1.31184        2.13856
H         -1.59605       -0.99413        1.68517
N          2.37957        0.41290       -1.45231
N          2.73083       -0.81578        0.39134
C          3.84893        0.19685       -1.45330
C          1.78051        1.15014       -2.55781
C          4.12416       -0.41954       -0.06223
H          4.13498       -0.47048       -2.27897
H          4.37985        1.14759       -1.58951
C          5.18471       -1.52123       -0.04999
H          4.50044        0.34606        0.62828
C          5.17499       -2.63418       -0.92479
N          6.19621       -1.31771        0.85041
C          6.22893       -3.56684       -0.86349
H          4.36093       -2.77679       -1.63323
C          7.27070       -3.36545        0.06707
H          6.23720       -4.43162       -1.52852
C          7.20875       -2.22745        0.89858
H          8.10502       -4.06288        0.14557
H          7.99267       -2.02517        1.63111
C          1.70967        2.57208       -2.47428
C          1.40705        0.45101       -3.74337
C          2.29666        3.32452       -1.28905
C          1.09863        3.28801       -3.54301
H          2.63569        2.64698       -0.50322
H          1.55707        3.99100       -0.82946
H          3.15479        3.94119       -1.60563
C          0.97385        4.80664       -3.47171
C          0.58787        2.58619       -4.67381
H          1.10408        5.27418       -4.45652
H          1.71698        5.25094       -2.80186
H         -0.01866        5.10796       -3.09396
C         -0.17437        3.34406       -5.75689
C          0.79792        1.18255       -4.80347
H         -0.92081        2.70734       -6.24601
H          0.49836        3.72404       -6.54599
H         -0.70947        4.20727       -5.34414
C          0.36110        0.46217       -6.07548
H          0.92340       -0.46289       -6.23945
H          0.49986        1.08744       -6.96695
H         -0.70657        0.18481       -6.03220
C          1.68524       -1.03642       -3.90732
H          0.78559       -1.58623       -4.20698
H          2.02881       -1.49381       -2.97806
H          2.45431       -1.20228       -4.68098
C          2.60267       -1.48034        1.67978
C          2.36910       -2.88565        1.72354
C          2.79755       -0.71547        2.86719
C          2.08737       -3.67650        0.45405
C          2.35095       -3.53845        2.99218
H          2.03793       -3.03117       -0.42291
H          1.11848       -4.19226        0.51786
H          2.85686       -4.44306        0.27586
C          2.11031       -5.04365        3.07763
C          2.56342       -2.78981        4.18705
H          2.85506       -5.53331        3.72195
H          2.15980       -5.52992        2.09990
H          1.11726       -5.27195        3.50057
C          2.52050       -3.48223        5.54630
C          2.80733       -1.38671        4.12311
H          2.04460       -2.84970        6.30677
H          3.53536       -3.71813        5.91177
H          1.96205       -4.42321        5.51484
C          3.07679       -0.60151        5.40334
H          3.65758        0.30695        5.21134
H          3.64251       -1.19727        6.13070
H          2.13981       -0.28981        5.89752
C          2.95153        0.79891        2.81336
H          3.99571        1.10923        2.98366
H          2.33882        1.28299        3.58567
H          2.62342        1.20959        1.85594
