83
/cluster/projects/nn2506k/marcof/RuC_BondLength/evolutionary_desing/RUN28052021044948/Gen014/M00000112_I_DFT.out	Energy: -928584.9768065
Ru         0.15495        0.51773        0.20733
C         -0.27431       -0.11099        1.85607
C          2.03768        0.05148       -0.05359
Cl        -0.89994       -1.20854       -1.11562
Cl         0.39861        2.85956        0.74844
H          0.34320       -0.64786        2.57897
H         -1.32696        0.08601        2.15476
N          2.68259        0.36727       -1.24709
N          2.97102       -0.57661        0.76655
C          4.07430       -0.14103       -1.29830
C          2.11362        1.00981       -2.42456
C          4.36351       -0.64713        0.14352
H          4.75826        0.66015       -1.59989
H          4.15349       -0.95023       -2.03916
C          5.03542       -2.05173        0.15335
C          5.44790        0.21324        0.86718
C          6.52900       -1.77316       -0.16733
H          4.57250       -2.74663       -0.55807
H          4.94452       -2.48730        1.15661
C          6.79934       -0.30256        0.30314
H          7.18375       -2.49574        0.34081
H          6.72383       -1.87339       -1.24581
H          7.13890        0.31591       -0.54106
H          7.58863       -0.25326        1.06709
H          5.39879        0.01676        1.94481
H          5.30262        1.29033        0.71410
C          2.18050        2.43201       -2.56804
C          1.57533        0.19792       -3.46989
C          2.93983        3.33400       -1.59926
C          1.54397        3.01425       -3.69015
C          4.37896        3.74708       -2.05362
H          2.35598        4.24990       -1.42632
H          3.01669        2.84587       -0.62335
C          4.47057        4.80206       -3.18266
H          4.89251        4.15376       -1.16378
H          4.94938        2.85307       -2.35840
C          5.92384        5.23536       -3.48207
H          3.87945        5.68978       -2.89656
H          4.01747        4.40628       -4.10454
H          6.40195        5.67667       -2.59260
H          5.95595        5.98723       -4.28651
H          6.53882        4.37845       -3.80215
C          0.91777        2.24415       -4.69367
H          1.53479        4.10131       -3.77413
C          0.19081        2.90609       -5.85220
C          0.98026        0.83818       -4.58034
H         -0.86726        3.08523       -5.59622
H          0.20490        2.27758       -6.75435
H          0.63269        3.88007       -6.10773
H          0.54316        0.21835       -5.36537
C          1.67075       -1.31947       -3.47402
H          2.61067       -1.64172       -3.95566
H          0.84344       -1.75803       -4.04578
H          1.62979       -1.74728       -2.46952
C          2.73684       -1.11544        2.09535
C          2.92963       -0.28805        3.24408
C          2.32826       -2.48222        2.24786
C          3.19735        1.20908        3.17592
C          2.79027       -0.86787        4.52875
H          2.40702        1.75278        3.71458
H          3.20647        1.59514        2.15600
H          4.15364        1.46567        3.65809
C          2.44057       -2.22133        4.71200
H          2.93941       -0.23089        5.40309
C          2.32286       -2.82641        6.10130
C          2.19122       -2.99731        3.55777
H          2.20743       -2.05297        6.87322
H          3.22263       -3.41246        6.35441
H          1.46277       -3.50866        6.17382
H          1.86474       -4.02973        3.68381
C          1.92522       -3.36192        1.06194
C          2.50448       -4.80245        1.04256
H          0.82394       -3.43338        1.05733
H          2.18161       -2.86329        0.12226
C          2.06502       -5.59728       -0.21163
H          3.60570       -4.76546        1.08435
H          2.18059       -5.35764        1.93759
C          2.61406       -7.04072       -0.24488
H          2.39331       -5.06153       -1.11993
H          0.96240       -5.62444       -0.25640
H          3.71610       -7.05135       -0.23684
H          2.28098       -7.57098       -1.15094
H          2.26829       -7.61990        0.62648
