91
/cluster/projects/nn2506k/marcof/RuC_BondLength/evolutionary_desing/RUN28052021044732/Gen036/M00000221_I_DFT.out	Energy: -1165884.9186531
Ru         0.09039        0.23029        0.39110
C         -0.18813       -0.52552        2.01871
C          1.96823       -0.10310       -0.04959
Cl        -1.07363       -1.39543       -0.95661
Cl         0.34771        2.52946        1.10421
H          0.49265       -1.10064        2.64944
H         -1.21402       -0.37046        2.41706
N          2.48910        0.28143       -1.29137
N          3.01933       -0.58441        0.72173
C          4.02517        0.34827       -1.26203
C          1.70132        0.51387       -2.51032
C          4.34740       -0.65032       -0.06215
C          4.47991        1.80452       -0.95749
C          4.66678       -0.05462       -2.61030
C          5.55941       -0.21772        0.80107
C          4.63969       -2.10583       -0.52100
H          5.45172        0.77561        1.23751
H          6.46508       -0.22258        0.17840
H          5.72049       -0.93511        1.61564
H          3.85929       -2.51939       -1.16179
H          4.75017       -2.75262        0.35530
H          5.58971       -2.14018       -1.07061
H          4.02145        2.20452       -0.04788
H          4.21388        2.45588       -1.79269
H          5.57123        1.84987       -0.84900
H          4.40675       -1.06320       -2.93499
H          5.76085        0.00499       -2.52312
H          4.36280        0.64511       -3.39908
C          1.29089        1.82993       -2.91391
C          1.36580       -0.61889       -3.33046
C          1.53325        3.12037       -2.13256
C          0.55191        1.96846       -4.11405
C          2.30912        4.22327       -2.90986
H          0.55097        3.53528       -1.85663
H          2.03116        2.91763       -1.18480
C          2.51575        5.50573       -2.06742
H          3.28971        3.84079       -3.24085
H          1.76457        4.48897       -3.83004
C          3.26265        6.62300       -2.82909
H          3.07108        5.25676       -1.14657
H          1.53251        5.88291       -1.73683
H          4.26599        6.29310       -3.14411
H          3.38776        7.51720       -2.19828
H          2.71217        6.92718       -3.73387
C          0.23864        0.86981       -4.93373
H          0.20513        2.95529       -4.40777
C          0.65196       -0.41483       -4.52762
C         -0.53008        1.00047       -6.21011
H          0.38801       -1.26886       -5.14951
O         -0.91847        2.32137       -6.45980
O         -0.80669        0.05728       -6.98678
C         -1.70008        2.55391       -7.69318
H         -1.11912        2.25993       -8.57833
H         -2.63623        1.97941       -7.66775
H         -1.90130        3.63072       -7.69550
C          1.71269       -2.05844       -2.98979
H          0.94509       -2.72934       -3.39418
H          1.75234       -2.23084       -1.91470
H          2.67412       -2.35860       -3.43581
C          2.94972       -1.08797        2.08751
C          2.62791       -2.46706        2.34277
C          3.23996       -0.20337        3.17643
C          2.06590       -3.42204        1.28599
C          2.70779       -2.93573        3.67303
C          2.69244       -4.84231        1.23025
H          0.98785       -3.53931        1.49269
H          2.11721       -2.96565        0.29590
C          2.04300       -5.73105        0.14104
H          3.77685       -4.77154        1.04470
H          2.58017       -5.34699        2.20266
C          2.63406       -7.15704        0.08668
H          2.15939       -5.25084       -0.84635
H          0.95611       -5.79336        0.32377
H          3.71428       -7.13610       -0.13046
H          2.14683       -7.75745       -0.69745
H          2.49602       -7.68359        1.04455
C          3.06754       -2.09242        4.74496
H          2.46771       -3.97208        3.89882
C          3.30566       -0.72780        4.48699
C          3.14193       -2.68376        6.11772
H          3.53337       -0.05983        5.31499
O          3.49209       -1.73434        7.08229
O          2.92330       -3.88511        6.39823
C          3.58669       -2.21709        8.47747
H          2.61993       -2.61877        8.81067
H          4.35273       -3.00016        8.56161
H          3.86486       -1.33152        9.05896
C          3.43520        1.29729        3.02845
H          2.77866        1.82575        3.73438
H          3.18460        1.66175        2.03290
H          4.46923        1.58973        3.26959
