95
/cluster/projects/nn2506k/marcof/RuC_BondLength/evolutionary_desing/RUN28052021044732/Gen036/M00000220_I_DFT.out	Energy: -1048043.9474986
Ru         0.06144        0.46432        0.16210
C         -0.32591       -0.15364        1.82481
C          1.97793        0.13959       -0.09323
Cl        -0.98634       -1.31758       -1.10026
Cl         0.21506        2.82093        0.72890
H          0.32851       -0.64172        2.55002
H         -1.38242        0.00025        2.13579
N          2.58938        0.47973       -1.30370
N          2.95818       -0.31244        0.78030
C          4.11852        0.53877       -1.15758
C          1.88028        0.66863       -2.57588
C          4.33905       -0.41334        0.09926
C          4.56191        2.00250       -0.87091
C          4.85424        0.08594       -2.43982
C          5.48447        0.04025        1.03836
C          4.64972       -1.88769       -0.28171
H          5.35578        1.05286        1.42192
H          6.43851       -0.00299        0.49368
H          5.56172       -0.64191        1.89434
H          3.91355       -2.31702       -0.96368
H          4.68348       -2.49954        0.62547
H          5.63813       -1.95252       -0.75650
H          4.03635        2.43604       -0.01431
H          4.36660        2.62431       -1.74703
H          5.64194        2.04598       -0.67814
H          4.62384       -0.93856       -2.73626
H          5.94002        0.16209       -2.28411
H          4.59231        0.74647       -3.27612
C          1.50250        1.96122       -3.07439
C          1.57150       -0.48586       -3.37509
C          1.73913        3.29117       -2.35580
C          0.81647        2.05533       -4.30559
C          2.60619        4.31718       -3.14161
H          0.75880        3.75555       -2.16744
H          2.16793        3.12775       -1.36737
C          2.81480        5.63892       -2.36266
H          3.58804        3.87846       -3.38865
H          2.13042        4.54770       -4.10863
C          3.64906        6.68303       -3.13786
H          3.30496        5.42374       -1.39742
H          1.82972        6.07021       -2.11301
H          4.65480        6.29817       -3.37305
H          3.77356        7.60734       -2.55146
H          3.16510        6.95443       -4.09015
C          0.50023        0.92797       -5.10835
H          0.50597        3.04619       -4.62460
N         -0.18215        1.05288       -6.32603
C          0.90489       -0.33944       -4.60435
C         -0.64920        2.36898       -6.78105
C         -0.58183       -0.14519       -7.07711
H         -1.12955        2.26834       -7.76145
H          0.18741        3.07936       -6.89278
H         -1.38548        2.81541       -6.08775
H         -1.26662       -0.79098       -6.49838
H          0.29192       -0.75149       -7.37112
H         -1.09932        0.15501       -7.99585
H          0.66932       -1.24559       -5.15613
C          1.91542       -1.91173       -2.97044
H          1.20455       -2.61320       -3.42413
H          1.85911       -2.05778       -1.89159
H          2.92175       -2.19780       -3.31549
C          2.78103       -0.74442        2.15979
C          2.43531       -2.10153        2.47852
C          2.97017        0.18836        3.22899
C          1.95698       -3.11477        1.43181
C          2.38892       -2.50135        3.83105
C          2.58770       -4.53266        1.49261
H          0.86572       -3.22585        1.55399
H          2.08892       -2.70767        0.42768
C          2.04726       -5.46970        0.38441
H          3.68489       -4.46301        1.40872
H          2.38518       -4.99937        2.47029
C          2.63895       -6.89536        0.44577
H          2.26023       -5.02980       -0.60541
H          0.94744       -5.52654        0.46141
H          3.73550       -6.87940        0.33602
H          2.23161       -7.52898       -0.35791
H          2.40664       -7.38409        1.40591
C          2.66457       -1.61301        4.90945
H          2.09688       -3.52497        4.04376
N          2.65598       -2.04707        6.24227
C          2.91590       -0.25482        4.56623
C          2.32416       -3.44036        6.56820
C          2.84719       -1.08471        7.33591
H          2.99647       -4.14623        6.05250
H          1.28385       -3.70100        6.29882
H          2.44066       -3.60162        7.64635
H          2.04526       -0.32482        7.37170
H          3.81192       -0.55730        7.24697
H          2.84785       -1.61591        8.29490
H          3.05374        0.49095        5.34568
C          3.17800        1.68221        3.01626
H          2.53158        2.24974        3.70088
H          2.92432        2.00112        2.00501
H          4.21647        1.97907        3.23371
