98
/cluster/projects/nn2506k/marcof/RuC_BondLength/evolutionary_desing/RUN28052021044732/Gen015/M00000110_I_DFT.out	Energy: -1081293.1923166
Ru        -0.05804       -0.36785       -0.29326
C         -0.41661       -0.98170        1.37837
C          1.89583       -0.32394       -0.39483
Cl        -0.36224       -2.41757       -1.54428
Cl        -0.72226        1.92725        0.11699
H          0.27992       -1.19376        2.19303
H         -1.49573       -1.13230        1.59665
N          2.53294        0.16358       -1.54070
N          2.87803       -0.80282        0.46885
C          4.03983        0.24253       -1.29406
C          1.84027        0.82403       -2.64804
C          4.24557       -0.94789       -0.28724
C          4.97251        0.34264       -2.48792
H          4.18797        1.17021       -0.71875
C          5.48417       -0.76873        0.64725
C          4.26142       -2.35171       -1.04260
C          5.97558        0.65079        1.02520
H          5.28772       -1.33274        1.56985
H          6.32110       -1.28055        0.16241
C          7.11405        0.64041        2.08262
H          6.34379        1.17328        0.12758
H          5.15241        1.25072        1.42739
C          8.45583        0.03345        1.60919
H          6.76876        0.10610        2.98519
H          7.29595        1.68375        2.39460
H          9.22783        0.14490        2.38686
H          8.82184        0.53974        0.70138
H          8.37084       -1.04054        1.38560
C          5.21565       -3.47450       -0.55310
H          3.24133       -2.74204       -1.02784
H          4.48034       -2.16487       -2.09668
C          4.97042       -4.83880       -1.25710
H          6.26942       -3.19638       -0.72366
H          5.11320       -3.62049        0.53205
C          5.33638       -4.88384       -2.75943
H          3.91433       -5.13318       -1.13530
H          5.56699       -5.60454       -0.73052
H          4.70915       -4.20874       -3.35967
H          5.19865       -5.90054       -3.15965
H          6.38975       -4.60263       -2.92249
C          6.13416       -0.36412       -2.77688
S          4.84093        1.75942       -3.63432
C          6.90395        0.14706       -3.87941
H          6.46260       -1.23162       -2.21678
C          6.35592        1.27836       -4.44999
H          7.82489       -0.31573       -4.22928
H          6.70246        1.85585       -5.30050
C          1.57894        2.22657       -2.57879
C          1.49096        0.06660       -3.80686
C          2.09733        3.08825       -1.43846
C          0.83755        2.84315       -3.62594
H          2.45352        2.49259       -0.59906
H          1.31107        3.74030       -1.04394
H          2.92661        3.72987       -1.78065
C          0.54659        4.33854       -3.55286
C          0.36101        2.06604       -4.72010
H          0.32783        4.76736       -4.53674
H          1.39804        4.89612       -3.14232
H         -0.31782        4.54584       -2.89855
C         -0.55652        2.69978       -5.76251
C          0.74218        0.69835       -4.84190
H         -1.23451        3.43125       -5.30537
H         -1.18359        1.95148       -6.25916
H          0.01130        3.22654       -6.54949
C          0.34329       -0.09567       -6.08270
H         -0.67410       -0.51277       -5.98380
H          1.01682       -0.93923       -6.26421
H          0.35574        0.52687       -6.98663
C          1.93158       -1.37738       -3.97322
H          2.37693       -1.76628       -3.06120
H          2.67631       -1.46009       -4.78242
H          1.08790       -2.03199       -4.22261
C          2.72844       -1.11696        1.88692
C          2.57558       -2.47124        2.32061
C          2.75771       -0.05252        2.84531
C          2.17627       -3.58242        1.36075
C          2.67369       -2.77006        3.71077
H          1.82519       -3.18652        0.40829
H          1.34282       -4.15915        1.78661
H          2.98617       -4.29841        1.16637
C          2.59533       -4.21965        4.17986
C          2.79971       -1.72309        4.66848
H          1.56526       -4.49844        4.46411
H          3.22614       -4.39680        5.05964
H          2.91579       -4.92354        3.40409
C          2.91624       -2.07871        6.14737
C          2.77131       -0.36418        4.23933
H          2.06603       -2.69205        6.48476
H          2.96144       -1.19863        6.79354
H          3.82749       -2.66753        6.34147
C          2.75995        0.75457        5.28008
H          2.58459        1.73794        4.83816
H          3.71511        0.80923        5.82848
H          1.96763        0.59675        6.02688
C          2.69243        1.40499        2.41267
H          2.77513        1.51289        1.33371
H          3.48077        2.01285        2.87804
H          1.72527        1.84743        2.69543
