80
/cluster/projects/nn2506k/marcof/RuC_BondLength/evolutionary_desing/RUN28052021044948/Gen000/M00000026_I_DFT.out	Energy: -903889.2236132
Ru         0.17378       -0.70134        0.09081
C         -0.18520       -0.08619        1.76228
C          2.06579       -0.23329       -0.19050
Cl         0.18543       -3.07088        0.54736
Cl        -0.95570        0.99174       -1.20420
H          0.48901        0.41663        2.45962
H         -1.22888       -0.24399        2.10729
N          2.70001       -0.56095       -1.39454
N          3.00389        0.41822        0.61884
C          4.15186       -0.24966       -1.36547
C          2.20558       -1.46001       -2.44769
C          4.35517        0.66144       -0.12275
H          4.45186        0.23926       -2.29747
H          4.73216       -1.17893       -1.27841
C          4.54399        2.16513       -0.50648
C          5.58977        0.22786        0.71682
C          5.89119        2.45815       -1.21520
H          3.72065        2.49889       -1.14383
H          4.50737        2.76343        0.41392
C          7.09876        1.98820       -0.37790
H          5.92243        1.97262       -2.20547
H          5.95463        3.54221       -1.40606
C          6.93844        0.50158        0.00188
H          7.16996        2.59643        0.54054
H          8.03661        2.14260       -0.93594
H          7.75779        0.18524        0.66842
H          7.02252       -0.12134       -0.90522
H          5.52808       -0.83901        0.95567
H          5.58233        0.78045        1.66615
C          2.40815       -2.86705       -2.21900
C          1.63806       -0.99651       -3.69257
C          3.20990       -3.42671       -1.05418
C          1.90394       -3.80615       -3.14300
H          2.82356       -4.41160       -0.76667
H          3.17742       -2.80123       -0.16519
H          4.26473       -3.56163       -1.35135
C          1.24308       -3.37840       -4.30231
H          2.02993       -4.87036       -2.94035
C          1.14755       -2.00708       -4.56855
H          0.83011       -4.10203       -5.00687
H          0.68526       -1.70922       -5.50530
C          1.59355        0.44841       -4.32164
C          2.60670        0.45106       -5.52152
C          0.16089        0.76975       -4.86781
C          1.98655        1.63291       -3.40274
H          2.34910       -0.29429       -6.28547
H          3.63088        0.23666       -5.17831
H          2.60954        1.44114       -6.00308
H         -0.58230        0.71677       -4.06405
H         -0.15468        0.09756       -5.67570
H          0.14899        1.79094       -5.27782
H          1.34552        1.69224       -2.52220
H          1.86462        2.56883       -3.96907
H          3.03432        1.58281       -3.09566
C          2.77452        1.11534        1.89028
C          2.24443        2.45437        1.81438
C          3.15791        0.56770        3.17687
C          1.60157        3.06178        0.57529
C          2.25047        3.28125        2.96057
H          2.10336        3.99840        0.28861
H          0.55324        3.31062        0.79617
H          1.58420        2.39872       -0.28491
C          2.76084        2.81421        4.17848
H          1.85411        4.29498        2.88062
C          3.17242        1.47845        4.27200
H          2.80207        3.46400        5.05404
H          3.49889        1.12160        5.24537
C          3.46307       -0.92091        3.61421
C          4.88937       -1.02462        4.25135
C          2.40295       -1.32063        4.70539
C          3.34849       -2.01446        2.52442
H          5.05944       -2.05332        4.60328
H          5.02008       -0.35749        5.11363
H          5.67478       -0.78630        3.52253
H          1.38517       -1.29139        4.29216
H          2.42864       -0.67431        5.59142
H          2.59672       -2.35074        5.03988
H          2.36065       -2.03115        2.06039
H          3.50217       -2.99654        2.99645
H          4.10259       -1.91188        1.74306
