63
/cluster/projects/nn2506k/marcof/RuC_BondLength/evolutionary_desing/RUN28052021044948/Gen000/M00000003_I_DFT.out	Energy: -1265119.6431010
Ru         0.18887        0.19824       -0.09761
C          0.00242       -0.47717        1.59338
C          2.11342        0.19023       -0.24804
Cl        -0.63099       -1.91187       -1.07857
Cl        -0.15450        2.54933        0.34780
H          0.78792       -0.88664        2.23635
H         -1.02355       -0.57914        1.99972
N          3.09315        0.80234        0.53677
N          2.78493       -0.27854       -1.39000
C          4.45602        0.70399       -0.06840
C          2.96614        1.42221        1.82466
C          4.17716        0.32700       -1.54459
H          5.02045       -0.07564        0.45689
H          4.97831        1.66212        0.01859
C          4.17958        1.55248       -2.51482
C          5.30200       -0.55839       -2.14728
C          5.67904        1.80929       -2.82940
H          3.66502        2.42204       -2.09164
H          3.65144        1.26866       -3.43638
C          6.41351        0.45723       -2.53032
H          5.81271        2.12386       -3.87433
H          6.08288        2.61827       -2.20347
H          7.12545        0.58021       -1.70051
H          6.99285        0.10085       -3.39381
H          4.93558       -1.05899       -3.05466
H          5.65257       -1.33256       -1.45666
C          2.93822        0.66132        3.04388
C          2.95542        2.83682        1.94298
C          2.74568        1.32376        4.27695
C          3.26458       -0.82454        3.10034
C          2.65760        2.72702        4.34471
H          2.70279        0.74658        5.19658
C          2.41577        3.39359        5.67681
C          2.78471        3.49273        3.17428
F          3.19224        2.81511        6.71388
F          1.06491        3.27854        6.09971
F          2.71390        4.77028        5.66873
H          2.74452        4.57845        3.20673
C          2.68216       -1.67589        4.23011
O          4.06963       -1.33663        2.28125
H          3.34639       -1.63400        5.10943
H          1.67993       -1.36063        4.54518
H          2.65374       -2.72012        3.89607
Cl         3.18485        3.90367        0.50727
C          2.27279       -1.20049       -2.36271
C          2.63530       -2.57163       -2.31654
C          1.47405       -0.77367       -3.47022
C          2.32137       -3.46830       -3.35076
Cl         3.47635       -3.25726       -0.87637
C          1.61730       -3.00025       -4.47564
H          2.61190       -4.51291       -3.26863
C          1.35008       -3.92809       -5.63464
C          1.18780       -1.66209       -4.52917
F          2.39264       -3.87210       -6.60782
F          0.16173       -3.61144       -6.32781
F          1.25410       -5.28031       -5.24905
H          0.58658       -1.32698       -5.37034
C          0.77239        0.55754       -3.45217
C          0.54466        1.32586       -4.74457
O          0.30510        1.01129       -2.37070
H          1.38513        1.23270       -5.44486
H         -0.36077        0.94965       -5.24961
H          0.36674        2.38052       -4.50338
