96
/cluster/projects/nn2506k/marcof/RuC_BondLength/evolutionary_desing/RUN28052021044948/Gen000/M00000021_I_DFT.out	Energy: -1144711.9876612
Ru        -0.11858       -0.26251       -0.23031
C         -0.53676       -0.27261        1.55592
C          1.81595       -0.12110       -0.20797
Cl        -0.25116       -2.68382       -0.56093
Cl        -0.97598        2.02180       -0.55902
H          0.12572       -0.36321        2.42284
H         -1.61539       -0.21095        1.81282
N          2.76362       -0.87941        0.48963
N          2.52147        0.58274       -1.20532
C          4.13237       -0.69796       -0.07736
C          2.65442       -1.53904        1.78050
C          3.88347       -0.08189       -1.47553
H          4.64375       -1.65986       -0.13714
H          4.70565       -0.02198        0.57073
C          3.70403       -1.16107       -2.59458
C          5.01236        0.89565       -1.88477
C          5.01832       -1.88723       -2.97479
H          2.93734       -1.88675       -2.29099
H          3.32454       -0.65126       -3.49279
C          6.13532       -0.88860       -3.35076
H          5.36220       -2.52337       -2.14248
H          4.81573       -2.57047       -3.81621
C          6.33258        0.15969       -2.23324
H          5.86792       -0.37425       -4.29064
H          7.07958       -1.42500       -3.54056
H          7.08064        0.90849       -2.54221
H          6.74209       -0.33156       -1.33420
H          5.19833        1.60933       -1.07536
H          4.69374        1.47158       -2.76619
C          2.54938       -0.74905        2.97722
C          2.72537       -2.96371        1.89531
C          2.38682       -1.38594        4.23126
C          2.74690        0.74970        3.01741
C          2.40781       -2.78895        4.36050
H          2.27493       -0.77668        5.12758
C          2.27441       -3.46174        5.72036
C          2.60230       -3.53996        3.18486
C          3.63949       -3.70550        6.42960
H          1.76074       -4.43004        5.60596
H          1.64157       -2.84655        6.38065
C          3.48732       -4.38907        7.80581
H          4.16168       -2.74164        6.55145
H          4.27970       -4.32424        5.77882
H          2.99913       -5.37238        7.71301
H          4.46962       -4.54646        8.27798
H          2.88006       -3.77777        8.49249
H          2.63919       -4.62543        3.26860
C          1.95032        1.58713        4.02312
O          3.61286        1.31347        2.29384
H          0.95909        1.17259        4.24087
H          2.50784        1.66550        4.97114
H          1.84397        2.60209        3.62263
C          2.99397       -3.90877        0.71086
C          2.04603       -5.13871        0.66356
C          4.47536       -4.40135        0.73369
H          2.82252       -3.34528       -0.21303
H          0.99723       -4.82710        0.70439
H          2.24308       -5.84803        1.48167
H          2.19871       -5.68150       -0.28201
H          4.66102       -5.04669        1.60549
H          5.19896       -3.57487        0.78047
H          4.68901       -4.99287       -0.17013
C          2.07355        1.71551       -2.00583
C          1.34249        1.50563       -3.22245
C          2.46490        3.04836       -1.66494
C          1.13634        2.57112       -4.12986
C          0.60603        0.23749       -3.49142
C          1.56867        3.87962       -3.83853
H          0.57993        2.39055       -5.04873
C          1.35930        5.02248       -4.82252
C          2.19232        4.08615       -2.59253
C          2.54436        5.20742       -5.81600
H          1.21346        5.96555       -4.27151
H          0.43791        4.85252       -5.40284
C          2.32325        6.37252       -6.80512
H          2.69548        4.27019       -6.37792
H          3.47179        5.37941       -5.24436
H          2.20379        7.33076       -6.27471
H          3.17817        6.47449       -7.49179
H          1.42012        6.21389       -7.41594
H          2.48187        5.10236       -2.32550
C          0.35946       -0.24340       -4.91785
O          0.10052       -0.43348       -2.54381
H          1.19817       -0.02062       -5.59009
H          0.16965       -1.32329       -4.89434
H         -0.54409        0.23821       -5.32651
C          3.08968        3.44233       -0.31686
C          2.03829        4.18147        0.56500
C          4.36966        4.31693       -0.44485
H          3.36234        2.53009        0.21941
H          1.13716        3.57373        0.70520
H          1.73151        5.13563        0.10998
H          2.47817        4.40195        1.54951
H          4.14172        5.33264       -0.80122
H          5.11006        3.88215       -1.13068
H          4.84223        4.41743        0.54411
