65
/cluster/projects/nn2506k/marcof/RuC_BondLength/evolutionary_desing/RUN28052021044948/Gen000/M00000005_I_DFT.out	Energy: -1113204.0792288
Ru        -0.03766        0.51408        0.08473
C         -0.49182       -0.68308        1.38598
C          1.81903        0.05741       -0.19076
Cl        -1.20330       -0.74559       -1.66380
Cl         0.17509        2.50247        1.44514
H          0.08213       -1.56386        1.68715
H         -1.49633       -0.57109        1.84224
N          2.42541        0.11286       -1.45504
N          2.85877       -0.18472        0.71422
C          3.93851        0.10432       -1.42039
C          1.78626       -0.07849       -2.72261
C          4.24726       -0.16105        0.08646
C          4.52253        1.40401       -2.08351
H          4.28316       -0.74717       -2.01871
C          5.11332       -1.41742        0.45971
H          4.76031        0.71339        0.50799
C          6.63179       -1.11594        0.34662
C          4.76239       -2.73241       -0.27727
H          4.92807       -1.58147        1.53363
H          7.20523       -1.95099        0.77578
H          6.91311       -0.20398        0.89670
H          6.95430       -1.00126       -0.69682
H          5.26924       -3.57451        0.21740
H          5.10220       -2.72002       -1.32289
H          3.68753       -2.94172       -0.27084
C          6.01878        1.24318       -2.45732
C          4.28443        2.71957       -1.30331
H          3.98084        1.48988       -3.04147
H          6.33711        2.09444       -3.07739
H          6.20246        0.32463       -3.03702
H          6.66716        1.22611       -1.57087
H          4.53402        3.57674       -1.94647
H          4.91998        2.79028       -0.40918
H          3.24279        2.83800       -0.98303
C          1.92327       -1.31017       -3.40731
C          1.09879        0.92060       -3.46480
C          1.44695       -1.55787       -4.69842
F          2.57850       -2.36193       -2.75293
C          0.77315       -0.53746       -5.40837
H          1.58680       -2.55005       -5.12605
C          0.20042       -0.79130       -6.78933
C          0.61588        0.71064       -4.77079
H          0.82359       -1.49013       -7.36481
H          0.10660        0.13883       -7.36585
H         -0.80612       -1.23481       -6.71308
H          0.09518        1.52590       -5.26847
N          0.80806        2.23732       -2.87281
O          0.43753        2.29295       -1.63409
O          0.90408        3.27570       -3.62234
C          2.77251       -0.06444        2.14192
C          3.01432        1.18987        2.75792
C          2.59756       -1.13992        3.06293
C          2.95324        1.42139        4.13608
F          3.37265        2.26463        1.94364
C          2.68947        0.34874        5.01712
H          3.10445        2.43639        4.50119
C          2.56385        0.57791        6.51072
C          2.55034       -0.93962        4.45848
H          1.57167        0.99123        6.75565
H          3.31314        1.29629        6.87323
H          2.68288       -0.35536        7.07662
H          2.41198       -1.80641        5.10052
N          2.51131       -2.56258        2.62623
O          1.87664       -2.85705        1.55071
O          3.09670       -3.43520        3.37443
