70
/cluster/projects/nn2506k/marcof/RuC_BondLength/evolutionary_desing/RUN28052021044948/Gen000/M00000022_I_DFT.out	Energy: -992869.6837751
Ru        -0.14347       -0.15794       -0.15702
C         -0.50213       -1.08808        1.36171
C          1.79302       -0.20462       -0.31705
Cl        -0.77074       -1.80820       -1.79516
Cl        -0.41604        2.07169        0.72804
H          0.19221       -1.56178        2.05839
H         -1.58387       -1.16328        1.60458
N          2.44283        0.48330       -1.33449
N          2.78679       -0.81913        0.46555
C          3.92059        0.42414       -1.23739
C          1.85231        1.17152       -2.47907
C          4.16067       -0.47085        0.00527
H          4.34422       -0.00054       -2.15581
H          4.34377        1.42792       -1.10253
C          5.09520       -1.65638       -0.34263
H          4.69640        0.07096        0.79731
F          4.61564       -2.49706       -1.36753
F          6.33592       -1.12924       -0.80554
F          5.41060       -2.47601        0.75386
C          1.67205        2.58444       -2.41693
C          1.59690        0.43143       -3.67127
C          2.13831        3.39303       -1.21504
C          1.07085        3.24220       -3.52811
H          2.43940        2.75512       -0.38225
H          1.34227        4.04243       -0.83245
H          2.99275        4.03581       -1.48748
C          0.84396        4.75020       -3.48962
C          0.67025        2.49098       -4.67142
H          0.96821        5.20683       -4.47983
H          1.54090        5.25463       -2.81228
H         -0.17494        4.99367       -3.14146
C         -0.08858        3.17727       -5.80324
C          0.98778        1.10472       -4.76921
H          0.59453        3.59220       -6.56521
H         -0.70348        4.00589       -5.43304
H         -0.76237        2.48170       -6.31680
C          0.66340        0.34039       -6.04862
H          1.28173       -0.55535       -6.16337
H          0.81742        0.95773       -6.94327
H         -0.38866        0.00648       -6.05729
C          1.99382       -1.03201       -3.80043
H          2.78663       -1.15163       -4.55764
H          1.14403       -1.65327       -4.10642
H          2.36139       -1.44938       -2.86222
C          2.63656       -1.46476        1.76635
C          2.40974       -2.86966        1.82604
C          2.80019       -0.67349        2.94094
C          2.18086       -3.68639        0.56246
C          2.36295       -3.49757        3.10553
H          2.10310       -3.05847       -0.32513
H          1.24558       -4.26018        0.62946
H          2.99648       -4.40613        0.39490
C          2.14986       -5.00478        3.21080
C          2.52378       -2.72236        4.29171
H          2.30328       -5.51295        2.25497
H          1.12748       -5.24886        3.54690
H          2.84347       -5.45764        3.93302
C          2.43379       -3.39241        5.65930
C          2.76320       -1.31894        4.21038
H          1.82565       -4.30285        5.63204
H          1.98680       -2.72789        6.40871
H          3.43178       -3.67933        6.03459
C          2.97603       -0.51144        5.48729
H          3.49323        0.43449        5.29808
H          3.57783       -1.06696        6.21854
H          2.01807       -0.26433        5.97697
C          2.97384        0.83836        2.85941
H          2.74401        1.22816        1.86583
H          3.99774        1.14962        3.12698
H          2.29163        1.34849        3.55265
