87
/cluster/projects/nn2506k/marcof/RuC_BondLength/evolutionary_desing/RUN28052021044948/Gen000/M00000037_I_DFT.out	Energy: -1211899.7682048
Ru        -0.04988       -0.05126        0.07792
C         -0.25939       -0.52113        1.82088
C          1.89406       -0.14092       -0.21841
Cl        -1.00706       -2.05201       -0.88169
Cl        -0.32786        2.33588        0.26997
H          0.48135       -0.89833        2.52901
H         -1.30135       -0.44063        2.19604
N          2.47633        0.27518       -1.42302
N          2.93770       -0.51712        0.62747
C          3.98058        0.31121       -1.38163
C          1.75417        0.79142       -2.57836
C          4.67654       -0.46888       -2.53666
C          4.30267       -0.21614        0.04709
H          4.28841        1.35918       -1.46229
C          4.79656       -1.95644       -2.28207
H          4.16031       -0.25846       -3.48153
H          5.68613       -0.02990       -2.64419
C          5.10102       -2.39823       -1.03951
H          4.63537       -2.65133       -3.10759
C          5.31616       -1.39523        0.07321
H          5.18467       -3.46149       -0.81604
H          5.30983       -1.87406        1.05801
H          6.31763       -0.93625       -0.03220
H          4.73305        0.59509        0.65135
C          1.03458       -0.10623       -3.43413
C          1.81335        2.19034       -2.90532
C          1.19834       -1.62466       -3.41352
C          0.18851        0.44488       -4.42312
C          1.80946       -2.17794       -4.73090
H          0.21766       -2.09265       -3.26653
H          1.81620       -1.93880       -2.56810
H          1.16759       -1.96865       -5.59837
H          1.91746       -3.27119       -4.65487
H          2.80173       -1.75282       -4.94180
C          0.11086        1.83215       -4.66239
H         -0.41952       -0.21507       -5.04014
C          0.97686        2.67945       -3.93247
C         -0.84407        2.34333       -5.71510
H          1.01030        3.74614       -4.14364
C         -1.01714        3.85025       -5.89827
O         -1.49797        1.53509       -6.43151
H         -1.31012        4.33508       -4.95451
H         -0.07877        4.32035       -6.23314
H         -1.79051        4.03109       -6.65303
C          2.79298        3.19304       -2.33689
C          3.89573        3.56861       -3.15401
C          2.61845        3.85687       -1.09868
C          4.80748        4.56069       -2.73739
H          4.03513        3.08348       -4.12204
C          4.62740        5.21021       -1.49656
H          5.64571        4.83066       -3.38251
C          3.52814        4.85573       -0.68599
H          5.32409        5.98627       -1.17457
H          3.36425        5.36693        0.26476
H          1.76214        3.61065       -0.47693
C          2.88521       -0.78327        2.05748
C          2.91094        0.32803        2.96239
C          2.91331       -2.12963        2.56480
C          2.92271        1.79014        2.51695
C          2.90437        0.07714        4.35391
C          4.19297        2.57170        2.94919
H          2.04177        2.29130        2.94934
H          2.79958        1.87243        1.43552
H          5.11039        2.12369        2.53830
H          4.30384        2.60661        4.04262
H          4.13464        3.60921        2.58781
C          2.91211       -1.23251        4.87766
H          2.88872        0.93258        5.02677
C          2.92637       -2.31300        3.96810
C          2.90761       -1.52940        6.36015
H          2.91902       -3.32154        4.37560
C          2.82079       -0.37383        7.35612
O          2.97627       -2.72019        6.77243
H          3.68504        0.30196        7.25838
H          1.91202        0.22635        7.19431
H          2.80359       -0.78138        8.37294
C          2.93336       -3.38822        1.74142
C          3.90075       -4.38747        2.04135
C          1.96629       -3.67214        0.74662
C          3.90547       -5.62293        1.36409
H          4.65607       -4.19645        2.80548
C          2.93216       -5.89359        0.37694
H          4.65959       -6.37218        1.61219
C          1.96389       -4.91279        0.07593
H          2.92481       -6.85458       -0.14058
H          1.19392       -5.10811       -0.67174
H          1.19144       -2.95125        0.50937
