101
/cluster/projects/nn2506k/marcof/RuC_BondLength/evolutionary_desing/RUN28052021044948/Gen023/M00000156_I_DFT.out	Energy: -1076507.3103022
Ru         0.15621        0.55798        0.03448
C         -0.33324       -0.01226        1.68763
C          2.03735        0.05144       -0.15287
Cl        -0.89596       -1.18328       -1.27084
Cl         0.44088        2.90942        0.50805
H          0.25215       -0.54128        2.44234
H         -1.38905        0.21600        1.95094
N          2.72128        0.31962       -1.33459
N          2.93735       -0.55896        0.71654
C          4.12085       -0.16737       -1.31568
C          2.20276        0.92271       -2.55469
C          4.34540       -0.67664        0.13747
H          4.80653        0.64756       -1.57872
H          4.25088       -0.96927       -2.05687
C          4.96796       -2.10433        0.17415
C          5.43628        0.14859        0.89075
C          6.48097       -1.88052       -0.09553
H          4.50500       -2.78528       -0.55077
H          4.82712       -2.53207        1.17482
C          6.78418       -0.41295        0.36424
H          7.09143       -2.61663        0.44720
H          6.71249       -2.00400       -1.16423
H          7.15912        0.18491       -0.47998
H          7.55810       -0.37662        1.14444
H          5.35111       -0.04413        1.96701
H          5.33122        1.22969        0.73282
C          2.30992        2.33320       -2.75468
C          1.69581        0.07812       -3.59051
C          3.04180        3.26959       -1.79854
C          1.75740        2.88150       -3.93620
C          4.40367        3.77814       -2.35790
H          2.40330        4.14062       -1.59044
H          3.20604        2.78456       -0.83125
C          5.13276        4.73072       -1.37962
H          5.05917        2.92028       -2.58877
H          4.23854        4.30028       -3.31480
C          6.48202        5.25263       -1.92187
H          5.30134        4.21146       -0.41926
H          4.47503        5.58740       -1.15116
H          7.17935        4.42426       -2.12762
H          6.96751        5.92675       -1.19844
H          6.34466        5.81312       -2.86049
C          1.15834        2.08535       -4.93499
H          1.80025        3.96368       -4.07462
C          0.50328        2.71360       -6.15785
C          1.17041        0.68417       -4.75308
C         -1.00674        3.03025       -5.94444
H          1.02406        3.64830       -6.42392
H          0.60100        2.03804       -7.02375
C         -1.67553        3.66494       -7.18687
H         -1.53594        2.10073       -5.67548
H         -1.11487        3.70810       -5.08108
C         -3.17350        3.98051       -6.97785
H         -1.56365        2.98408       -8.04956
H         -1.14139        4.59405       -7.45483
H         -3.74410        3.06775       -6.74344
H         -3.61571        4.42994       -7.88128
H         -3.31958        4.68741       -6.14558
H          0.75655        0.04167       -5.53276
C          1.76123       -1.43937       -3.52733
H          2.71108       -1.79892       -3.96090
H          0.94622       -1.88702       -4.10977
H          1.67724       -1.82308       -2.50790
C          2.65430       -1.05134        2.05403
C          2.83179       -0.19031        3.18129
C          2.21057       -2.40281        2.23793
C          3.13767        1.29692        3.07051
C          2.64131       -0.72415        4.47807
H          2.35939        1.87626        3.58901
H          3.16100        1.65165        2.03936
H          4.09832        1.54377        3.54926
C          2.25614       -2.06365        4.69557
H          2.77567       -0.06127        5.33580
C          2.09250       -2.61995        6.10431
C          2.02437       -2.87089        3.55986
C          3.39763       -3.24980        6.67430
H          1.76344       -1.81863        6.78597
H          1.30068       -3.38684        6.11270
C          3.22382       -3.81570        8.10398
H          3.73601       -4.05436        5.99948
H          4.19615       -2.48843        6.67546
C          4.51609       -4.44055        8.67531
H          2.42246       -4.57567        8.10019
H          2.88116       -3.00912        8.77608
H          4.86713       -5.27575        8.04823
H          4.35245       -4.83153        9.69198
H          5.32869       -3.69839        8.72917
H          1.66873       -3.89046        3.70959
C          1.81880       -3.31102        1.06980
C          2.35970       -4.76580        1.11387
H          0.71661       -3.35455        1.03491
H          2.11514       -2.85097        0.12228
C          1.92991       -5.59196       -0.12330
H          3.46024       -4.75587        1.18205
H          1.99935       -5.28129        2.01865
C          2.44039       -7.04957       -0.09340
H          2.29467       -5.09688       -1.04069
H          0.82839       -5.59186       -0.19508
H          3.54120       -7.08876       -0.05683
H          2.11554       -7.60201       -0.98915
H          2.05764       -7.58901        0.78799
