85
/cluster/projects/nn2506k/marcof/RuC_BondLength/evolutionary_desing/RUN28052021044948/Gen012/M00000100_I_DFT.out	Energy: -1091360.0409411
Ru        -0.21168        0.13357        0.00707
C         -0.56982       -0.90553        1.45299
C          1.72660        0.03282       -0.19972
Cl        -0.96600       -1.38275       -1.71676
Cl        -0.37571        2.28661        1.10056
H          0.12296       -1.46113        2.08851
H         -1.64724       -0.96531        1.71928
N          2.37508        0.69882       -1.24726
N          2.70771       -0.58827        0.56882
C          3.85240        0.38446       -1.27872
C          1.72715        1.28300       -2.42397
C          4.09408       -0.13888        0.15840
C          4.78849        1.50995       -1.72148
H          4.01317       -0.41294       -2.01410
C          5.21418       -1.17080        0.28759
H          4.38921        0.68117        0.82433
C          5.34656       -2.30854       -0.54281
N          6.13168       -0.87535        1.26075
C          6.44625       -3.16950       -0.35951
H          4.61130       -2.52352       -1.31535
C          7.39025       -2.87431        0.64657
H          6.56535       -4.05035       -0.99198
C          7.18875       -1.71669        1.42736
H          8.25582       -3.51440        0.81903
H          7.89398       -1.44189        2.21429
C          5.11335        2.63675       -0.93021
N          5.34334        1.31142       -2.95816
C          6.02395        3.58849       -1.42958
H          4.66664        2.77828        0.05175
C          6.58984        3.39449       -2.70722
H          6.28628        4.46284       -0.83233
C          6.21810        2.24129       -3.43008
H          7.29805        4.10794       -3.12929
H          6.63185        2.04325       -4.42089
C          1.40929        2.67369       -2.43327
C          1.51955        0.46618       -3.57504
C          1.76197        3.58200       -1.26639
C          0.76493        3.22208       -3.58209
H          2.16659        3.02043       -0.42527
H          0.88187        4.11660       -0.88993
H          2.50838        4.33197       -1.57273
C          0.38430        4.70016       -3.61376
C          0.47659        2.39611       -4.70634
H          0.60960        5.15604       -4.58792
H          0.91440        5.28235       -2.85492
H         -0.69483        4.84041       -3.42936
C         -0.29485        2.96287       -5.89533
C          0.90740        1.03844       -4.72471
H          0.37939        3.28400       -6.70866
H         -0.89992        3.83092       -5.61378
H         -0.98117        2.21786       -6.31786
C          0.70420        0.18119       -5.97003
H          1.53976       -0.51367       -6.12178
H          0.62266        0.78716       -6.87907
H         -0.21301       -0.42860       -5.89484
C          1.94072       -0.99526       -3.60963
H          2.08830       -1.40338       -2.60861
H          2.87550       -1.12052       -4.18207
H          1.17172       -1.61633       -4.08181
C          2.56332       -1.33268        1.81044
C          2.34566       -2.74109        1.75346
C          2.72687       -0.64963        3.04964
C          2.10407       -3.44672        0.42605
C          2.30292       -3.47864        2.97391
H          2.09061       -2.74594       -0.40884
H          1.13145       -3.96036        0.42234
H          2.87538       -4.20547        0.22447
C          2.07299       -4.98798        2.95187
C          2.47971       -2.81017        4.22161
H          2.81849       -5.51643        3.56417
H          2.13064       -5.40466        1.94300
H          1.07994       -5.25285        3.35261
C          2.40870       -3.59134        5.53085
C          2.71392       -1.40471        4.25714
H          1.89237       -4.54936        5.41608
H          1.87449       -3.02766        6.30716
H          3.41599       -3.80984        5.92639
C          2.94803       -0.70210        5.59096
H          3.45128       -1.35683        6.31259
H          1.99948       -0.37617        6.05288
H          3.57317        0.19040        5.47592
C          2.88289        0.86360        3.10108
H          2.27505        1.29428        3.90735
H          2.54800        1.33922        2.17691
H          3.93016        1.15450        3.28639
