100
/cluster/projects/nn2506k/marcof/RuC_BondLength/evolutionary_desing/RUN28052021044732/Gen012/M00000096_I_DFT.out	Energy: -1133594.0717265
Ru        -0.09778       -0.00813       -0.03681
C         -0.42153       -0.64544        1.63267
C          1.82109       -0.28643       -0.35402
Cl        -1.10571       -1.83332       -1.26808
Cl        -0.10505        2.34758        0.53849
H          0.26364       -1.10849        2.34468
H         -1.47770       -0.53436        1.96182
N          2.42342        0.23062       -1.50126
N          2.80925       -0.91290        0.39754
C          3.91965        0.21982       -1.35839
C          1.73609        0.95389       -2.57165
C          4.18637       -0.96555       -0.33946
C          4.70971        0.29062       -2.66355
H          4.19252        1.13367       -0.80815
C          5.40997       -0.56066        0.54980
C          4.36902       -2.38167       -0.98027
C          5.96517       -1.52967        1.62717
H          6.22682       -0.35989       -0.16289
H          5.19079        0.40174        1.03043
C          7.31502       -1.02788        2.20127
H          5.25134       -1.63952        2.45048
H          6.11459       -2.53578        1.21182
C          7.88600       -1.94766        3.30330
H          7.18441       -0.01033        2.61105
H          8.05337       -0.93847        1.38419
H          7.19005       -2.03023        4.15336
H          8.84239       -1.56092        3.68927
H          8.06663       -2.96497        2.92048
C          5.73478       -2.75542       -1.61980
H          4.17633       -3.11205       -0.18671
H          3.58685       -2.51907       -1.73667
C          5.68194       -4.15981       -2.27433
H          6.02983       -2.02936       -2.38497
H          6.53334       -2.75682       -0.86366
C          7.02867       -4.59553       -2.89327
H          4.90256       -4.16566       -3.05548
H          5.37100       -4.90549       -1.52091
H          6.95018       -5.59313       -3.35364
H          7.82439       -4.64076       -2.13206
H          7.35463       -3.89115       -3.67552
C          5.76097        1.23623       -2.77348
N          4.38154       -0.53594       -3.70022
C          6.49876        1.32284       -3.97119
H          5.99371        1.89884       -1.93978
C          6.15650        0.47385       -5.04359
H          7.31213        2.04341       -4.06754
C          5.08979       -0.43175       -4.85631
H          6.68958        0.51252       -5.99382
H          4.78503       -1.10430       -5.66118
C          1.77557        2.38142       -2.58500
C          1.10843        0.21965       -3.62417
C          2.50707        3.17627       -1.51252
C          1.10993        3.08134       -3.63001
H          2.65197        2.59550       -0.60095
H          1.93243        4.06045       -1.21658
H          3.49011        3.52481       -1.87398
C          1.17709        4.60513       -3.67791
C          0.36887        2.36424       -4.61267
H          0.40739        5.06577       -3.03417
H          1.02891        4.99036       -4.69312
H          2.14910        4.97868       -3.33221
C         -0.45951        3.12599       -5.64419
C          0.40058        0.94049       -4.63224
H          0.14989        3.44748       -6.50727
H         -0.90936        4.02803       -5.21033
H         -1.28061        2.51683       -6.03667
C         -0.32326        0.18728       -5.74530
H         -0.17193        0.66312       -6.72440
H         -1.41108        0.15493       -5.56175
H          0.01365       -0.84906       -5.83239
C          1.20704       -1.29344       -3.71934
H          1.75698       -1.57926       -4.62835
H          0.21679       -1.76144       -3.74946
H          1.74378       -1.71655       -2.87306
C          2.62236       -1.46938        1.73113
C          2.24605       -2.83780        1.89201
C          2.82088       -0.62088        2.86570
C          1.78564       -3.68931        0.71606
C          2.19923       -3.38817        3.20701
H          1.68786       -3.10640       -0.19839
H          0.79439       -4.11612        0.92486
H          2.46351       -4.53331        0.51523
C          1.84576       -4.85852        3.40750
C          2.45373       -2.56780        4.34381
H          2.00999       -5.45216        2.50298
H          0.78554       -4.98553        3.68840
H          2.44522       -5.31182        4.20812
C          2.37218       -3.18405        5.73721
C          2.74532       -1.18200        4.17548
H          2.31727       -2.43112        6.52834
H          3.25207       -3.81603        5.94835
H          1.48760       -3.82798        5.84011
C          2.97835       -0.30556        5.40453
H          2.05699       -0.18934        5.99904
H          3.31853        0.69978        5.14478
H          3.73803       -0.74208        6.07040
C          3.04790        0.87678        2.70340
H          2.97747        1.18895        1.66205
H          4.02902        1.19149        3.09202
H          2.28267        1.44570        3.25054
