85
/cluster/projects/nn2506k/marcof/RuC_BondLength/evolutionary_desing/RUN28052021044948/Gen022/M00000148_I_DFT.out	Energy: -1278597.0810534
Ru        -0.27672        0.77357       -0.29907
C         -0.61508        1.05021        1.48521
C          1.61923        0.45359       -0.29038
Cl        -1.04755       -1.55646       -0.26664
Cl        -0.46459        3.16863       -0.83901
H          0.06597        1.02254        2.34387
H         -1.66616        1.29049        1.75475
N          2.63072        0.87721        0.55947
N          2.25868       -0.27526       -1.32424
C          3.98886        0.42835        0.11923
C          2.56788        1.59805        1.80657
C          3.72977       -0.01588       -1.32451
H          4.33094       -0.39240        0.76077
H          4.68532        1.27189        0.17372
H          4.31125       -0.89721       -1.59615
H          3.95301        0.78877       -2.04406
C          2.51927        3.02350        1.85871
C          2.71405        0.86005        3.04081
C          2.49864        3.69052        3.10813
C          2.58615        3.97808        0.69104
C          2.59224        2.98703        4.32738
H          2.45340        4.77616        3.09771
C          2.71840        1.58288        4.26490
C          2.55739        3.70675        5.63757
H          2.76395        1.01955        5.19359
C          3.35911        3.28495        6.73235
C          1.71588        4.83666        5.82398
C          3.32105        3.96484        7.96635
H          4.03829        2.43996        6.61191
C          2.47824        5.08477        8.13649
H          3.95389        3.62702        8.78922
C          1.67630        5.51679        7.05764
H          2.44770        5.61165        9.09178
H          1.01538        6.37707        7.17765
H          1.07173        5.17000        5.00980
O          3.22465        3.46001       -0.43872
O          2.21904        5.17123        0.75272
C          3.33904        4.40033       -1.57937
H          2.33999        4.71305       -1.90656
H          3.92432        5.28377       -1.29016
H          3.85430        3.82969       -2.36040
N          2.92746       -0.54813        3.06430
C          3.72043       -1.11109        4.17164
C          1.89730       -1.49519        2.57312
H          4.57337       -0.46060        4.40609
H          4.11322       -2.08826        3.85217
H          3.13799       -1.27887        5.10152
H          1.31050       -1.07251        1.76183
H          1.19967       -1.77657        3.38773
H          2.37945       -2.40483        2.19329
C          1.65868       -1.18436       -2.25028
C          2.18053       -2.50765       -2.44332
C          0.53660       -0.78839       -3.04440
C          1.63762       -3.34891       -3.44535
C          3.17504       -3.13824       -1.51429
C          0.54410       -2.95361       -4.23986
H          2.04591       -4.34915       -3.54875
C          0.00624       -1.66750       -4.00636
C         -0.02930       -3.85962       -5.27918
H         -0.82819       -1.33657       -4.61767
C          0.81302       -4.67799       -6.07958
C         -1.43186       -3.93165       -5.49696
C          0.27442       -5.53334       -7.06168
H          1.89502       -4.62636       -5.95168
C         -1.12121       -5.59190       -7.26806
H          0.94287       -6.14598       -7.66955
C         -1.97128       -4.78667       -6.47894
H         -1.53883       -6.25423       -8.02828
H         -3.05279       -4.83244       -6.61913
H         -2.10668       -3.34491       -4.87255
O          3.86969       -4.18583       -2.14315
O          3.38391       -2.84566       -0.31526
C          4.78364       -4.97451       -1.28890
H          5.56864       -4.33273       -0.86548
H          4.22831       -5.45474       -0.47135
H          5.21298       -5.72344       -1.96321
N         -0.03823        0.54079       -2.84669
C          0.80767        1.59306       -3.51345
C         -1.46313        0.69227       -3.28505
H          1.83231        1.54366       -3.13773
H          0.39744        2.57739       -3.27348
H          0.81690        1.44303       -4.60851
H         -1.81906        1.66202       -2.91929
H         -2.07121       -0.10335       -2.84092
H         -1.57713        0.67558       -4.38458
