111
/cluster/projects/nn2506k/marcof/RuC_BondLength/evolutionary_desing/RUN28052021044948/Gen022/M00000153_I_DFT.out	Energy: -1195221.3867301
Ru         0.23064        0.61655        0.08266
C         -0.18585        0.12434        1.78066
C          2.12151        0.14372       -0.12030
Cl        -0.79590       -1.21456       -1.11855
Cl         0.38704        3.00579        0.43344
H          0.45926       -0.31931        2.54230
H         -1.24169        0.31432        2.07286
N          2.77989        0.43467       -1.31097
N          3.03397       -0.48369        0.72506
C          4.20841        0.03905       -1.28784
C          2.21925        1.06865       -2.49557
C          4.39852       -0.69763        0.06812
H          4.84680        0.92921       -1.36033
H          4.43395       -0.60654       -2.14585
C          4.80090       -2.19388       -0.11857
C          5.62338       -0.15486        0.86499
C          6.32335       -2.16246       -0.42401
H          4.21948       -2.69106       -0.90540
H          4.62220       -2.72848        0.82170
C          6.85223       -0.82167        0.19157
H          6.82878       -3.03958        0.00579
H          6.51152       -2.18951       -1.50785
H          7.26624       -0.17476       -0.59678
H          7.65988       -0.99062        0.91860
H          5.54779       -0.48313        1.90932
H          5.67935        0.94074        0.85904
C          2.30280        2.48867       -2.66604
C          1.65237        0.26490       -3.53349
C          3.09232        3.39001       -1.71796
C          1.65663        3.07994       -3.76914
C          4.52689        3.78669       -2.20083
H          2.52144        4.31199       -1.53572
H          3.18100        2.90394       -0.74110
C          4.60716        4.86253       -3.31106
H          5.07277        4.16694       -1.31825
H          5.07215        2.89000       -2.54067
C          6.05926        5.27762       -3.64093
H          4.03868        5.75431       -2.99268
H          4.12359        4.49025       -4.22713
H          6.56814        5.69347       -2.75619
H          6.08397        6.04422       -4.43189
H          6.65047        4.41645       -3.99270
C          0.96896        2.31361       -4.75519
H          1.68016        4.16296       -3.84321
N          0.28247        2.92732       -5.81189
C          1.03072        0.89662       -4.62864
C          0.19771        4.39168       -5.89084
C         -0.43416        2.11252       -6.80168
H          1.19141        4.85732       -6.01560
H         -0.27118        4.82568       -4.99029
H         -0.41241        4.67693       -6.75582
H         -0.92735        2.76844       -7.52855
H         -1.21180        1.48387       -6.33285
H          0.24864        1.44895       -7.36118
H          0.57253        0.25998       -5.38145
C          1.72651       -1.26061       -3.54857
C          2.74125       -1.81957       -4.58920
H          1.97994       -1.64345       -2.55485
H          0.73086       -1.66662       -3.77848
C          2.80540       -3.36627       -4.59358
H          2.46679       -1.46682       -5.59713
H          3.74771       -1.41265       -4.38918
C          3.79775       -3.93764       -5.63089
H          1.79700       -3.76983       -4.79181
H          3.08453       -3.72485       -3.58654
H          3.52452       -3.63282       -6.65394
H          3.81324       -5.03887       -5.60323
H          4.82407       -3.58349       -5.44106
C          2.80295       -0.95656        2.07999
C          3.12340       -0.11588        3.19503
C          2.29577       -2.27740        2.31654
C          3.54861        1.34899        3.04878
C          3.02838       -0.63617        4.50232
C          2.62874        2.37257        3.77382
H          4.57186        1.46752        3.44717
H          3.58728        1.62457        1.99032
C          3.11943        3.83053        3.60487
H          1.60886        2.29060        3.37208
H          2.57113        2.13762        4.84948
C          2.20949        4.86144        4.30889
H          3.16753        4.07179        2.52979
H          4.14896        3.92136        3.99762
H          1.18830        4.82590        3.89894
H          2.58973        5.88647        4.17230
H          2.14679        4.66913        5.39265
C          2.58457       -1.96279        4.76633
H          3.29543        0.01946        5.32623
N          2.51879       -2.46931        6.07230
C          2.19118       -2.74508        3.64271
C          2.84882       -1.61161        7.21828
C          2.02404       -3.83044        6.31752
H          2.18033       -0.73463        7.28913
H          3.88824       -1.24392        7.16770
H          2.74564       -2.18527        8.14669
H          2.61327       -4.58138        5.76456
H          0.96320       -3.95074        6.03049
H          2.10960       -4.06420        7.38518
H          1.77876       -3.73673        3.79870
C          1.74459       -3.16234        1.19343
C          2.16616       -4.65643        1.21060
H          0.64381       -3.11651        1.24110
H          1.99998       -2.73317        0.22092
C          1.58830       -5.44564        0.00985
H          3.26605       -4.73895        1.20640
H          1.82502       -5.14180        2.13964
C          1.97115       -6.94218        0.01937
H          1.93501       -4.98667       -0.93254
H          0.48884       -5.34882        0.00723
H          3.06462       -7.07690       -0.01335
H          1.54339       -7.46678       -0.84965
H          1.60007       -7.44424        0.92767
