67
/cluster/projects/nn2506k/marcof/RuC_BondLength/evolutionary_desing/RUN28052021121055/Gen009/M00000092_I_DFT.out	Energy: -781418.9146228
Ru        -0.17169        0.04549       -0.04599
C         -0.49937       -0.74930        1.55400
C          1.76071       -0.11743       -0.25510
Cl        -0.91217       -1.72968       -1.50602
Cl        -0.29951        2.35880        0.63595
H          0.20716       -1.22183        2.24058
H         -1.56751       -0.75008        1.86094
N          2.41461        0.36306       -1.38975
N          2.73566       -0.65555        0.57533
C          3.89029        0.16288       -1.34790
C          1.82966        1.00068       -2.56191
C          4.11210       -0.54683        0.00481
H          4.21552       -0.44636       -2.20322
H          4.40696        1.13163       -1.40634
H          4.75584        0.03011        0.68445
H          4.55171       -1.54840       -0.10968
C          1.74518        2.42361       -2.60729
C          1.48154        0.19372       -3.68512
C          2.31267        3.28538       -1.48843
C          1.14598        3.03475       -3.74631
H          2.64140        2.68644       -0.63710
H          1.56628        3.98947       -1.10202
H          3.17351        3.87269       -1.85043
C          1.00903        4.55260       -3.81676
C          0.66286        2.22877       -4.81806
H          1.72509        5.06300       -3.16500
H          0.00195        4.87810       -3.50314
H          1.17083        4.92995       -4.83521
C         -0.08257        2.87773       -5.98066
C          0.88576        0.82093       -4.81663
H         -0.62237        3.77740       -5.66316
H         -0.82247        2.19596       -6.41631
H          0.60243        3.17800       -6.79326
C          0.47142       -0.01495       -6.02357
H          1.02847       -0.95531       -6.08547
H          0.63462        0.52151       -6.96749
H         -0.59935       -0.27938       -5.97747
C          1.76585       -1.30142       -3.70348
H          2.11652       -1.66314       -2.73502
H          2.53257       -1.54158       -4.45951
H          0.86615       -1.87996       -3.94399
C          2.62493       -1.29532        1.87209
C          2.48582       -2.71276        1.92979
C          2.77382       -0.50177        3.04645
C          2.33466       -3.53389        0.65583
C          2.46426       -3.34572        3.20677
H          3.18631       -4.21886        0.51319
H          2.25626       -2.90076       -0.22994
H          1.42384       -4.14925        0.68376
C          2.32372       -4.86152        3.31144
C          2.57101       -2.56266        4.39431
H          2.51423       -5.36343        2.35850
H          1.30850       -5.15263        3.63146
H          3.02488       -5.28148        4.04639
C          2.49799       -3.24106        5.75896
C          2.75039       -1.14976        4.31580
H          1.88356       -4.14822        5.73294
H          2.06693       -2.58090        6.52058
H          3.49943       -3.53809        6.11738
C          2.91282       -0.33705        5.59686
H          1.94914       -0.20884        6.11920
H          3.30827        0.66475        5.40604
H          3.59753       -0.82859        6.30220
C          2.92801        1.01039        2.95155
H          2.16962        1.52711        3.55694
H          2.80574        1.36873        1.92784
H          3.91526        1.33902        3.31539
