87
/cluster/projects/nn2506k/marcof/RuC_BondLength/evolutionary_desing/RUN28052021044948/Gen003/M00000049_I_DFT.out	Energy: -1071239.6050881
Ru        -0.20323        0.18223        0.03809
C         -0.57068       -0.89162        1.45585
C          1.73280        0.05198       -0.18997
Cl        -1.01535       -1.26343       -1.72037
Cl        -0.30048        2.31026        1.18702
H          0.11372       -1.49331        2.05778
H         -1.64481       -0.92634        1.73941
N          2.37932        0.74442       -1.21946
N          2.70622       -0.61201        0.54856
C          3.86992        0.48648       -1.24415
C          1.73604        1.29965       -2.41457
C          4.11032       -0.23681        0.11402
C          4.77426        1.69994       -1.48077
H          4.06225       -0.21004       -2.06939
C          5.13743       -1.37112        0.05892
H          4.48323        0.48711        0.84932
C          6.20042       -1.37131        0.99417
C          5.10558       -2.39845       -0.91633
C          7.20206       -2.36368        0.96271
H          6.24943       -0.58815        1.75313
C          7.15794       -3.38030       -0.01398
H          8.01213       -2.34065        1.69367
C          6.10326       -3.39249       -0.95290
H          7.93198       -4.14909       -0.04509
H          6.05862       -4.17477       -1.71290
H          4.29972       -2.43902       -1.64792
C          4.98739        2.70912       -0.50939
C          5.46726        1.79982       -2.71127
C          5.86634        3.78089       -0.76084
H          4.45934        2.67894        0.44357
C          6.55229        3.86738       -1.99223
H          6.01288        4.54922        0.00049
C          6.34731        2.87134       -2.96965
H          7.23407        4.69743       -2.18555
H          6.87014        2.92588       -3.92605
H          5.32010        1.03398       -3.47526
C          1.40460        2.68588       -2.46298
C          1.54632        0.45255       -3.54872
C          1.71477        3.62287       -1.30819
C          0.78096        3.20254       -3.63822
H          2.08805        3.08339       -0.44009
H          0.82079        4.16755       -0.98066
H          2.47398        4.36363       -1.60384
C          0.39888        4.67842       -3.71262
C          0.51461        2.34838       -4.74590
H          0.60753        5.10172       -4.70452
H          0.94355        5.28419       -2.98287
H         -0.67687        4.82566       -3.51365
C         -0.23998        2.88140       -5.96091
C          0.94700        0.99123       -4.72122
H         -0.86988        3.73996       -5.70525
H         -0.90012        2.11670       -6.38920
H          0.44642        3.20653       -6.76250
C          0.74712        0.10023       -5.94334
H          1.54398       -0.64721       -6.03881
H          0.73616        0.67761       -6.87500
H         -0.20689       -0.45244       -5.88558
C          1.95173       -1.01476       -3.53573
H          1.15024       -1.64441       -3.93818
H          2.14565       -1.37829       -2.52621
H          2.85130       -1.18947       -4.15136
C          2.56492       -1.33131        1.80703
C          2.33609       -2.73820        1.78106
C          2.74633       -0.62577        3.03282
C          2.05274       -3.46597        0.47477
C          2.31750       -3.45425        3.01445
H          1.96040       -2.77308       -0.36151
H          1.10710       -4.02450        0.53309
H          2.84672       -4.18814        0.23339
C          2.10217       -4.96538        3.01955
C          2.50372       -2.76349        4.24763
H          2.81280       -5.46871        3.69021
H          2.22955       -5.40613        2.02701
H          1.08798       -5.23151        3.36389
C          2.44268       -3.52394        5.56921
C          2.73505       -1.35705        4.25565
H          3.45046       -3.80849        5.91961
H          1.85712       -4.44573        5.48798
H          1.98489       -2.92040        6.36288
C          2.96528       -0.63533        5.58031
H          3.48941        0.31646        5.44691
H          3.56661       -1.24140        6.27060
H          2.01303       -0.41050        6.09171
C          2.90281        0.88942        3.05774
H          3.92923        1.19328        3.32450
H          2.23052        1.33869        3.80081
H          2.64259        1.34448        2.10098
