85
/cluster/projects/nn2506k/marcof/RuC_BondLength/evolutionary_desing/RUN28052021121055/Gen001/M00000051_I_DFT.out	Energy: -1091360.0409411
Ru        -0.21169        0.13356        0.00706
C         -0.56982       -0.90553        1.45299
C          1.72659        0.03281       -0.19972
Cl        -0.96600       -1.38276       -1.71676
Cl        -0.37573        2.28661        1.10054
H          0.12295       -1.46113        2.08851
H         -1.64724       -0.96530        1.71927
N          2.37508        0.69882       -1.24726
N          2.70770       -0.58827        0.56882
C          3.85240        0.38445       -1.27873
C          1.72715        1.28300       -2.42397
C          4.09408       -0.13888        0.15840
C          4.78850        1.50994       -1.72149
H          4.01317       -0.41295       -2.01409
C          5.21419       -1.17079        0.28760
H          4.38920        0.68117        0.82433
C          5.34656       -2.30854       -0.54280
N          6.13168       -0.87533        1.26076
C          6.44626       -3.16949       -0.35949
H          4.61131       -2.52353       -1.31534
C          7.39025       -2.87430        0.64659
H          6.56536       -4.05034       -0.99196
C          7.18875       -1.71668        1.42738
H          8.25583       -3.51439        0.81905
H          7.89398       -1.44187        2.21430
C          5.11336        2.63674       -0.93022
N          5.34333        1.31140       -2.95817
C          6.02396        3.58847       -1.42960
H          4.66665        2.77828        0.05174
C          6.58985        3.39447       -2.70724
H          6.28629        4.46283       -0.83236
C          6.21810        2.24127       -3.43010
H          7.29805        4.10792       -3.12932
H          6.63184        2.04323       -4.42091
C          1.40930        2.67369       -2.43327
C          1.51955        0.46618       -3.57505
C          1.76198        3.58200       -1.26639
C          0.76493        3.22208       -3.58209
H          2.16659        3.02043       -0.42527
H          0.88188        4.11661       -0.88994
H          2.50839        4.33197       -1.57273
C          0.38431        4.70016       -3.61375
C          0.47659        2.39612       -4.70634
H          0.60956        5.15603       -4.58793
H          0.91446        5.28235       -2.85495
H         -0.69481        4.84042       -3.42929
C         -0.29487        2.96288       -5.89532
C          0.90739        1.03844       -4.72471
H          0.37937        3.28407       -6.70863
H         -0.89997        3.83090       -5.61374
H         -0.98115        2.21786       -6.31788
C          0.70420        0.18119       -5.97003
H          1.53975       -0.51366       -6.12178
H          0.62268        0.78717       -6.87908
H         -0.21302       -0.42858       -5.89485
C          1.94072       -0.99526       -3.60964
H          2.08830       -1.40338       -2.60861
H          2.87550       -1.12051       -4.18207
H          1.17172       -1.61632       -4.08182
C          2.56332       -1.33268        1.81044
C          2.34566       -2.74108        1.75346
C          2.72686       -0.64963        3.04964
C          2.10407       -3.44672        0.42605
C          2.30292       -3.47864        2.97391
H          2.09061       -2.74594       -0.40884
H          1.13146       -3.96037        0.42234
H          2.87539       -4.20546        0.22447
C          2.07300       -4.98798        2.95187
C          2.47970       -2.81017        4.22161
H          2.81847       -5.51642        3.56421
H          2.13069       -5.40466        1.94301
H          1.07993       -5.25284        3.35256
C          2.40869       -3.59133        5.53085
C          2.71391       -1.40471        4.25714
H          1.89226       -4.54931        5.41610
H          1.87459       -3.02762        6.30720
H          3.41599       -3.80994        5.92633
C          2.94802       -0.70211        5.59097
H          3.45145       -1.35680        6.31252
H          1.99946       -0.37636        6.05299
H          3.57301        0.19050        5.47592
C          2.88287        0.86361        3.10108
H          2.27501        1.29428        3.90733
H          2.54799        1.33922        2.17689
H          3.93013        1.15452        3.28640
