79
/cluster/projects/nn2506k/marcof/RuC_BondLength/evolutionary_desing/RUN28052021044732/Gen031/M00000198_I_DFT.out	Energy: -1254510.0169208
Ru        -0.06940       -0.50589       -0.28577
C         -0.42404       -0.56139        1.49622
C          1.88483       -0.36568       -0.32503
Cl        -0.13196       -2.81182       -0.97584
Cl        -1.08141        1.62986       -0.77590
H          0.24205       -0.29850        2.32296
H         -1.46119       -0.84071        1.77023
N          2.56099       -0.02086       -1.49717
N          2.84262       -0.75018        0.61319
C          4.09136       -0.05258       -1.35767
C          1.91033        0.46010       -2.71084
C          4.23168       -0.94852       -0.04440
C          4.68749        1.37639       -1.20868
C          4.77973       -0.66970       -2.60372
C          5.40245       -0.52841        0.87528
C          4.42231       -2.45480       -0.36573
H          5.35150        0.51049        1.20535
H          6.34838       -0.66710        0.33324
H          5.44103       -1.17257        1.76261
H          5.37309       -2.61423       -0.89139
H          3.60628       -2.85623       -0.97383
H          4.45062       -3.03171        0.56067
H          4.28800        1.91991       -0.35424
H          4.47867        1.96364       -2.11145
H          5.77993        1.30862       -1.11637
H          4.43378       -1.67454       -2.84472
H          5.86410       -0.71350       -2.43116
H          4.61737       -0.02806       -3.47975
C          1.60828        1.85723       -2.91622
C          1.61382       -0.47128       -3.75728
C          1.05208        2.27452       -4.14542
C          1.78815        2.92427       -1.86598
C          0.76871        1.35943       -5.17685
H          0.81790        3.32281       -4.29400
C          1.04086       -0.00262       -4.96396
C          0.17550        1.88196       -6.44886
H          0.80688       -0.72057       -5.74732
O         -0.09388        0.85584       -7.35832
O         -0.05817        3.08676       -6.69331
C         -0.70094        1.25976       -8.64580
H         -1.66800        1.75179       -8.47421
H         -0.03463        1.94667       -9.18549
H         -0.83020        0.32250       -9.19757
O          1.55671        4.19833       -2.39624
O          2.09747        2.76939       -0.66903
C          1.56356        5.32000       -1.43424
H          0.80888        5.15283       -0.65395
H          2.55442        5.42657       -0.97084
H          1.31746        6.20003       -2.03808
C          1.86604       -1.96794       -3.68689
H          2.64072       -2.25907       -4.41380
H          0.94907       -2.51192       -3.94944
H          2.16025       -2.30822       -2.69634
C          2.69670       -0.87276        2.05781
C          2.40894       -2.11124        2.72556
C          2.91015        0.29709        2.86559
C          2.49492       -2.18982        4.13462
C          1.78417       -3.37012        2.14834
C          2.83939       -1.07052        4.91651
H          2.27045       -3.12868        4.63737
C          2.99741        0.17042        4.27044
C          2.96226       -1.24471        6.39743
H          3.18560        1.05972        4.86815
O          3.23692       -0.03703        7.04469
O          2.84134       -2.33142        7.00715
C          3.37122       -0.09539        8.51726
H          2.43946       -0.45809        8.97233
H          4.19703       -0.76219        8.80083
H          3.57886        0.93716        8.81784
O          2.65296       -4.17697        1.43576
O          0.61751       -3.70601        2.43805
C          2.09450       -5.46255        0.93579
H          2.92151       -5.92411        0.38554
H          1.78558       -6.09012        1.78249
H          1.23700       -5.26453        0.28296
C          3.00835        1.70532        2.30441
H          2.44991        2.39500        2.95422
H          2.59990        1.80121        1.30091
H          4.04973        2.06442        2.29140
