110
/cluster/projects/nn2506k/marcof/RuC_BondLength/evolutionary_desing/RUN28052021044732/Gen021/M00000145_I_DFT.out	Energy: -1179916.4567852
Ru         0.12828        0.52389        0.16709
C         -0.09527       -0.16791        1.83077
C          1.89488       -0.09641       -0.42828
Cl        -1.36726       -1.00349       -0.97626
Cl         0.69677        2.78924        0.80358
H          0.56378       -0.82557        2.40099
H         -1.05270        0.11881        2.31775
N          2.38530        0.28597       -1.67577
N          2.85332       -0.88252        0.19284
C          3.77254       -0.24731       -1.96257
C          1.82120        1.32195       -2.55144
C          4.20698       -0.93308       -0.59056
C          3.88679       -1.04485       -3.25048
H          4.41022        0.62999       -2.09923
C          5.25903       -0.03511        0.16668
C          4.68098       -2.41983       -0.65859
C          6.50547        0.50752       -0.58865
H          5.60619       -0.61171        1.03669
H          4.73023        0.83644        0.56506
C          7.49955        1.19222        0.38546
H          7.03191       -0.28485       -1.13275
H          6.20407        1.25312       -1.34094
C          8.72499        1.81476       -0.32578
H          6.97226        1.97885        0.95404
H          7.84832        0.45334        1.12895
C          9.72727        2.48693        0.64375
H          8.37868        2.56201       -1.06197
H          9.24936        1.03224       -0.90301
C         10.94812        3.11095       -0.06841
H         10.07736        1.74130        1.37944
H          9.20454        3.26928        1.22182
H         10.63782        3.88879       -0.78448
H         11.63550        3.57761        0.65485
H         11.51654        2.35013       -0.62724
C          6.08160       -2.76118       -1.22874
H          3.94109       -3.00005       -1.21554
H          4.65519       -2.79883        0.37248
C          6.27880       -4.29381       -1.35041
H          6.22958       -2.30590       -2.21737
H          6.86680       -2.36629       -0.56664
C          7.68833       -4.69302       -1.84923
H          6.09353       -4.76610       -0.36869
H          5.52141       -4.70414       -2.04130
C          7.88777       -6.22220       -1.98384
H          8.44901       -4.28969       -1.15674
H          7.87643       -4.21639       -2.82778
C          9.29649       -6.61883       -2.47914
H          7.13073       -6.62708       -2.67857
H          7.69765       -6.70106       -1.00690
H         10.07752       -6.26304       -1.78797
H          9.39673       -7.71272       -2.56222
H          9.50682       -6.18742       -3.47103
C          3.31683       -2.23223       -3.68076
S          4.96305       -0.37557       -4.56234
C          3.70526       -2.64184       -5.00396
H          2.61276       -2.80408       -3.08391
C          4.58447       -1.76807       -5.61726
H          3.33985       -3.54990       -5.48058
H          5.03425       -1.82609       -6.60266
C          2.30504        2.66158       -2.43036
C          0.88127        0.97125       -3.56647
C          3.35904        3.04852       -1.40471
C          1.77666        3.67127       -3.28270
H          3.06358        3.95420       -0.86300
H          4.33123        3.25267       -1.88543
H          3.49895        2.27493       -0.65158
C          2.29603        5.10140       -3.16773
C          0.75621        3.35334       -4.22420
H          2.20461        5.64802       -4.11349
H          3.35477        5.12890       -2.88391
H          1.74255        5.67114       -2.40089
C          0.09506        4.46445       -5.03576
C          0.34824        2.00113       -4.39893
H          0.04456        5.40104       -4.46763
H         -0.93281        4.20527       -5.31331
H          0.64342        4.67716       -5.97037
C         -0.66381        1.64508       -5.48447
H         -0.57400        2.30265       -6.35788
H         -1.70019        1.72885       -5.11296
H         -0.53636        0.61797       -5.84186
C          0.43926       -0.46169       -3.80182
H         -0.65325       -0.54377       -3.82670
H          0.78550       -1.12717       -3.01467
H          0.82988       -0.83285       -4.76190
C          2.65963       -1.67790        1.40313
C          2.09120       -2.98623        1.29719
C          3.06740       -1.15865        2.67104
C          1.49947       -3.48837       -0.01293
C          2.03168       -3.81726        2.45637
H          1.53149       -2.72853       -0.79201
H          0.44033       -3.75029        0.11788
H          2.01979       -4.38603       -0.38117
C          1.44183       -5.22338        2.36782
C          2.53182       -3.34266        3.70397
H          2.14313       -5.97803        2.75513
H          1.19279       -5.51167        1.34403
H          0.51557       -5.30910        2.95949
C          2.49341       -4.22609        4.94738
C          3.04281       -2.01699        3.80925
H          2.11591       -3.67538        5.82040
H          3.50113       -4.59063        5.21134
H          1.85552       -5.10488        4.81948
C          3.54229       -1.50549        5.15724
H          2.71301       -1.14072        5.78865
H          4.25075       -0.67765        5.04787
H          4.05171       -2.29537        5.72384
C          3.40234        0.31467        2.86918
H          2.86092        0.70936        3.74058
H          3.09834        0.91731        2.01287
H          4.47321        0.48828        3.05343
