97
/cluster/projects/nn2506k/marcof/RuC_BondLength/evolutionary_desing/RUN28052021044732/Gen021/M00000147_I_DFT.out	Energy: -1401493.4796785
Ru        -0.00940        0.51344        0.22987
C         -0.51418       -0.59843        1.57420
C          1.88234        0.09060       -0.14702
Cl        -1.31371       -0.52308       -1.52059
Cl         0.13609        2.56659        1.48120
H          0.02438       -1.42058        2.04490
H         -1.54605       -0.42457        1.94402
N          2.49347        0.49597       -1.33953
N          2.86113       -0.50851        0.64359
C          4.05409        0.42899       -1.27330
C          1.74728        0.80926       -2.56007
C          4.23972       -0.66994       -0.08974
C          4.55919        1.88520       -0.93385
C          4.70949       -0.04564       -2.61109
C          5.46061       -0.32556        0.82672
C          4.35208       -2.17125       -0.55510
C          5.94232       -1.31272        1.92691
H          6.30708       -0.19426        0.14013
H          5.29629        0.64887        1.29270
C          7.23448       -0.79565        2.61242
H          5.17842       -1.45999        2.69790
H          6.15226       -2.30435        1.50507
C          7.75862       -1.74479        3.71273
H          7.04651        0.19978        3.05240
H          8.02285       -0.65207        1.85203
H          8.67442       -1.34680        4.17712
H          7.99676       -2.73938        3.30299
H          7.01161       -1.88305        4.51055
C          5.66153       -2.74180       -1.18406
H          4.18585       -2.75692        0.35223
H          3.52031       -2.40740       -1.22134
C          5.71232       -4.28889       -1.07223
H          5.73519       -2.48136       -2.24713
H          6.55874       -2.32732       -0.70223
C          6.95576       -4.90411       -1.75129
H          4.80112       -4.71770       -1.52386
H          5.69285       -4.58487       -0.00976
H          6.95897       -6.00061       -1.64999
H          7.88799       -4.52488       -1.30201
H          6.98407       -4.66890       -2.82751
C          6.07315        2.26114       -0.93586
H          4.10357        2.51910       -1.69584
H          4.11996        2.20826        0.01464
C          6.26629        3.79465       -1.07889
H          6.56518        1.94813       -0.00666
H          6.61265        1.76365       -1.75525
C          7.74753        4.22764       -1.01422
H          5.70125        4.30856       -0.28209
H          5.82711        4.13615       -2.03116
H          7.84422        5.31934       -1.12112
H          8.33832        3.76028       -1.81883
H          8.20832        3.94482       -0.05384
C          4.78442        0.89848       -3.84329
H          5.74578       -0.29958       -2.35142
H          4.24045       -0.97936       -2.93088
C          5.58750        0.24398       -4.99773
H          3.78538        1.14791       -4.21637
H          5.26664        1.85050       -3.58557
C          5.69121        1.14378       -6.24906
H          5.11484       -0.71377       -5.27939
H          6.60448       -0.00543       -4.64507
H          6.26683        0.64943       -7.04730
H          6.19243        2.09675       -6.01599
H          4.69445        1.38191       -6.65292
C          1.40464        2.14484       -2.96946
C          1.36082       -0.27391       -3.41951
C          1.65725        3.44184       -2.22483
C          0.77693        2.37468       -4.21932
F          1.97793        3.35140       -0.87378
F          0.53722        4.31066       -2.29681
F          2.72959        4.19097       -2.83632
C          0.46199        1.31278       -5.07553
H          0.52508        3.39264       -4.50909
C          0.74114        0.00422       -4.66072
H         -0.01980        1.50518       -6.03423
H          0.45346       -0.83453       -5.29591
C          1.54237       -1.74233       -3.07937
H          2.45404       -2.15534       -3.53874
H          0.69296       -2.31361       -3.47370
H          1.57314       -1.92287       -2.00764
C          2.66695       -0.90204        2.03143
C          2.31254       -2.24210        2.42121
C          2.88123        0.06418        3.06837
C          1.86656       -3.38048        1.51919
C          2.28742       -2.61047        3.78947
F          1.52379       -3.05534        0.20298
F          0.70950       -4.02438        2.05117
F          2.84111       -4.42649        1.43674
C          2.54791       -1.66700        4.79316
H          2.02952       -3.63152        4.06420
C          2.80964       -0.34028        4.42494
H          2.51892       -1.96077        5.84250
H          2.97186        0.41241        5.19815
C          3.19972        1.52809        2.82629
H          2.53786        2.15507        3.43718
H          3.04999        1.83634        1.79495
H          4.23580        1.75400        3.12488
