92
/cluster/projects/nn2506k/marcof/RuC_BondLength/evolutionary_desing/RUN28052021121055/Gen021/M00000156_I_DFT.out	Energy: -1282965.8082454
Ru        -0.48175        0.57108        0.13351
C         -0.51850        0.89831        1.91907
C          1.41428        0.60637       -0.30825
Cl        -1.00108       -1.78637        0.19365
Cl        -0.99118        2.76376       -0.72177
H          0.31627        1.00190        2.61503
H         -1.53780        0.98148        2.35267
N          2.48440        1.16371        0.35953
N          1.89677        0.11630       -1.54684
C          3.76445        1.07260       -0.39834
C          2.53567        1.80740        1.66149
C          3.35777        0.37233       -1.71333
H          4.49445        0.47202        0.15393
H          4.15179        2.08279       -0.55564
C          3.76450        1.18581       -2.96111
H          3.88447       -0.58259       -1.81166
F          3.07004        2.38244       -3.17281
F          5.14472        1.51975       -2.86673
F          3.64457        0.41902       -4.14870
C          2.28460        3.21198        1.79593
C          2.88601        1.02923        2.80761
C          2.30093        3.78929        3.08730
C          2.11961        4.15464        0.61725
C          2.62312        3.04209        4.24122
H          2.08338        4.85080        3.19592
C          2.68681        3.70113        5.61280
C          2.92527        1.67652        4.06825
C          4.09012        4.28523        5.95261
H          1.94449        4.51389        5.67004
H          2.41343        2.96894        6.38984
C          4.14603        4.95158        7.34798
H          4.84082        3.47850        5.90043
H          4.37299        5.02243        5.18220
C          5.53606        5.53196        7.69074
H          3.85997        4.21235        8.11700
H          3.39228        5.75716        7.39807
H          6.30909        4.74698        7.68701
H          5.53629        5.99674        8.68920
H          5.83822        6.30214        6.96327
H          3.18970        1.08744        4.94654
C          1.20278        5.36728        0.75810
O          2.78846        3.98474       -0.43590
H          0.94920        5.72626       -0.24526
H          0.28247        5.12820        1.30413
H          1.72371        6.18242        1.28775
C          3.24198       -0.46567        2.73276
C          2.32290       -1.35599        3.61639
C          4.73856       -0.69892        3.09568
H          3.10453       -0.80625        1.70316
H          1.26913       -1.26738        3.31998
H          2.40349       -1.10925        4.68556
H          2.61074       -2.41152        3.49715
H          4.94638       -0.46271        4.15020
H          5.40892       -0.08311        2.47761
H          5.00166       -1.75399        2.92801
C          1.28717       -0.92311       -2.38557
C          1.56962       -2.31374       -2.11542
C          0.47514       -0.57751       -3.50819
C          1.08444       -3.29979       -3.00467
C          2.32926       -2.81345       -0.90950
C          0.33855       -2.97798       -4.15599
H          1.29075       -4.34807       -2.79886
C         -0.11211       -4.05384       -5.13377
C          0.03433       -1.62186       -4.36267
C          0.92401       -4.33227       -6.26264
H         -0.30416       -4.99415       -4.59152
H         -1.06670       -3.75712       -5.59732
C          0.45836       -5.42391       -7.25542
H          1.12162       -3.39616       -6.81170
H          1.88366       -4.63361       -5.80913
C          1.48215       -5.70341       -8.37805
H         -0.50296       -5.12030       -7.70628
H          0.25869       -6.35903       -6.70268
H          1.67743       -4.79824       -8.97487
H          1.11590       -6.48371       -9.06370
H          2.44471       -6.04545       -7.96531
H         -0.57515       -1.35515       -5.22522
C          2.01028       -4.20565       -0.36168
O          3.22221       -2.12604       -0.33474
H          0.92906       -4.38010       -0.30665
H          2.45795       -4.99120       -0.99158
H          2.44937       -4.28809        0.63928
C          0.00355        0.84688       -3.85139
C         -1.55127        0.93947       -3.79474
C          0.49576        1.32702       -5.24794
H          0.40293        1.54114       -3.10466
H         -1.95331        0.57312       -2.84177
H         -2.01927        0.36071       -4.60527
H         -1.86189        1.98788       -3.90244
H          0.04852        0.73738       -6.06255
H          1.58498        1.26978       -5.34564
H          0.19695        2.37564       -5.39671
