37
/cluster/projects/nn2506k/marcof/RuC_BondLength/evolutionary_desing/RUN28052021044732/Gen005/M00000058_I_DFT.out	Energy: -534885.5495879
Ru        -0.12133       -0.02519       -0.08176
C         -0.35606       -0.44855        1.67047
C          1.80392        0.11626       -0.12985
Cl        -0.32528       -2.12690       -1.26115
Cl        -0.59337        2.32942        0.04847
H          0.40059       -0.45927        2.46336
H         -1.39961       -0.66054        1.98269
N          2.45978        0.85755       -1.10748
N          2.78602       -0.36498        0.73771
C          3.94282        0.82424       -0.95522
C          1.88437        1.42637       -2.30512
C          4.11088        0.27736        0.47392
H          4.38294        0.16064       -1.71836
H          4.37243        1.82618       -1.07372
H          4.91533       -0.46363        0.55588
H          4.29653        1.08735        1.19717
C          1.23104        0.60061       -3.24968
C          2.04219        2.80812       -2.56290
C          0.71288        1.16770       -4.43368
H          1.12622       -0.46640       -3.06377
C          0.86846        2.54510       -4.69343
H          0.19647        0.52770       -5.15077
C          1.53907        3.36202       -3.75528
H          0.46934        2.97927       -5.61138
H          1.65031        4.43131       -3.94189
H          2.51607        3.44871       -1.81928
C          2.70123       -1.39109        1.74222
C          3.23604       -1.14776        3.03244
C          2.16838       -2.66665        1.43343
C          3.22847       -2.16813        4.00553
H          3.63939       -0.16601        3.28242
C          2.68144       -3.43467        3.70558
H          3.63960       -1.96877        4.99660
C          2.15004       -3.67408        2.41900
H          2.67173       -4.22218        4.46052
H          1.72774       -4.64982        2.17357
H          1.75993       -2.85816        0.44445
