72
/cluster/projects/nn2506k/marcof/RuC_BondLength/evolutionary_desing/RUN28052021044948/Gen003/M00000052_I_DFT.out	Energy: -1173894.7338086
Ru        -0.05674       -0.54666        0.48603
C          0.39648       -0.88600        2.21261
C          1.73609       -0.07314       -0.12371
Cl        -0.39817       -2.81718       -0.24867
Cl        -1.14562        1.59106        0.48856
H          1.41528       -1.01984        2.58766
H         -0.42790       -1.07360        2.92891
N          2.74607        0.58340        0.58182
N          2.27317       -0.42017       -1.36335
C          3.98587        0.74336       -0.23946
C          2.61294        1.44920        1.72036
C          3.78535       -0.28952       -1.36468
H          4.86798        0.51664        0.36489
H          4.03988        1.77247       -0.62452
C          4.46927        0.08474       -2.67647
H          4.20423       -1.25740       -1.06166
C          4.11211        1.21121       -3.45581
N          5.52328       -0.72748       -3.00241
C          4.86232        1.50085       -4.61336
H          3.25564        1.81846       -3.17629
C          5.95111        0.67113       -4.95768
H          4.60020        2.35988       -5.23318
C          6.24117       -0.42675       -4.12002
H          6.55646        0.86485       -5.84397
H          7.07409       -1.09745       -4.34162
C          2.09277        2.75149        1.53898
C          3.06964        1.14044        3.04160
C          1.91132        3.68790        2.55652
F          1.77132        3.16256        0.24029
C          2.28694        3.35326        3.89024
H          1.48418        4.64907        2.28902
N          2.09556        4.24841        4.94386
C          2.88386        2.06977        4.09051
C          1.45797        5.55139        4.69722
C          2.51331        3.89599        6.30831
H          0.45324        5.43440        4.25743
H          2.05950        6.18268        4.02015
H          1.34697        6.08960        5.64507
H          3.60052        3.71518        6.37282
H          1.99084        2.99690        6.67911
H          2.27465        4.72199        6.98735
H          3.23153        1.79841        5.08075
C          3.81345       -0.14117        3.35503
C          3.69509       -0.74825        4.75762
O          4.54438       -0.70225        2.49541
H          4.37486       -0.23432        5.45716
H          2.67704       -0.67802        5.16334
H          4.00552       -1.79870        4.70739
C          1.58422       -1.08352       -2.43015
C          1.90559       -2.42199       -2.74974
C          0.55932       -0.48346       -3.22808
C          1.31746       -3.16577       -3.76912
F          2.86824       -3.08415       -1.97056
C          0.27581       -2.58271       -4.54760
H          1.64317       -4.19301       -3.89756
N         -0.35849       -3.29883       -5.56515
C         -0.08773       -1.23824       -4.23281
C         -1.48019       -2.70397       -6.30565
C          0.01293       -4.69844       -5.82281
H         -1.17557       -1.78894       -6.84193
H         -2.32640       -2.45057       -5.64266
H         -1.84367       -3.41865       -7.05251
H         -0.19387       -5.34866       -4.95440
H          1.08217       -4.79216       -6.07636
H         -0.56379       -5.07914       -6.67326
H         -0.87516       -0.75699       -4.80146
C          0.16994        0.98326       -3.12582
C         -1.28897        1.37787       -3.36758
O          1.02789        1.87643       -2.90410
H         -1.46782        1.52563       -4.44592
H         -1.99632        0.62588       -2.99738
H         -1.47233        2.33224       -2.86232
