84
/cluster/projects/nn2506k/marcof/RuC_BondLength/evolutionary_desing/RUN28052021044732/Gen008/M00000076_I_DFT.out	Energy: -1368169.0817662
Ru         0.38428       -0.67531        0.25965
C         -0.10458        0.40187        1.64014
C          2.04656        0.12775       -0.33609
Cl         1.39173       -2.53420        1.39482
Cl        -1.31524       -0.04627       -1.32210
H          0.32935        1.35997        1.93639
H         -0.98271        0.05635        2.22394
N          2.95196        0.96898        0.29450
N          2.63962       -0.25259       -1.55565
C          4.13861        1.26723       -0.55811
C          2.90145        1.57706        1.59561
C          4.08908        0.11991       -1.58525
H          5.05191        1.23920        0.03939
H          4.02524        2.24973       -1.03502
C          4.70932        0.53307       -2.93144
H          4.69733       -0.73159       -1.24294
F          4.10641        1.63072       -3.56822
F          6.06545        0.89977       -2.69995
F          4.74651       -0.51476       -3.87407
C          2.34332        2.88010        1.77020
C          3.44616        0.94359        2.75169
C          1.73942        3.67153        0.61146
C          2.32159        3.46477        3.05455
C          2.61405        4.87121        0.13905
H          1.53950        3.01855       -0.24305
H          0.76207        4.07053        0.92995
C          1.96578        5.64840       -1.03247
H          2.78987        5.55960        0.98333
H          3.60791        4.50794       -0.17205
C          2.82407        6.83576       -1.52141
H          0.97499        6.02039       -0.71674
H          1.78184        4.95688       -1.87091
H          2.99915        7.56706       -0.71542
H          2.32791        7.36383       -2.35057
H          3.80689        6.49569       -1.88537
C          2.83119        2.81295        4.21736
H          1.87736        4.45291        3.14133
N          2.77991        3.40151        5.47947
C          3.40525        1.52204        4.02779
C          2.20327        4.74408        5.65066
C          3.28257        2.67623        6.65861
H          1.13707        4.77393        5.36620
H          2.74133        5.49922        5.05279
H          2.27602        5.04039        6.70272
H          2.75827        1.71652        6.80133
H          3.11884        3.28225        7.55630
H          4.36434        2.47112        6.58452
H          3.82168        0.95402        4.85156
N          4.14449       -0.37804        2.69423
O          4.81597       -0.67253        1.63626
O          4.08512       -1.13600        3.72715
C          1.95994       -0.94260       -2.62441
C          2.07679       -2.35832       -2.77194
C          1.20171       -0.24034       -3.61637
C          2.92783       -3.22183       -1.84229
C          1.38420       -3.01105       -3.81270
C          4.17597       -3.86025       -2.51993
H          3.24547       -2.65289       -0.96362
H          2.29715       -4.03435       -1.44881
C          4.99334       -4.73342       -1.53706
H          3.85996       -4.47991       -3.37573
H          4.82336       -3.07233       -2.93601
C          6.23535       -5.38189       -2.18743
H          4.34250       -5.52351       -1.12331
H          5.31007       -4.11873       -0.67683
H          5.95250       -6.03791       -3.02668
H          6.78988       -5.99275       -1.45780
H          6.92708       -4.61861       -2.57862
C          0.58742       -2.31887       -4.76957
H          1.46936       -4.09319       -3.86221
N         -0.10792       -2.98511       -5.77660
C          0.53598       -0.90058       -4.65504
C         -0.94005       -2.23100       -6.72930
C         -0.05688       -4.45203       -5.86797
H         -0.34098       -1.51763       -7.32007
H         -1.74008       -1.66965       -6.21766
H         -1.41445       -2.92775       -7.42908
H         -0.45304       -4.93415       -4.95748
H          0.97178       -4.81643       -6.03212
H         -0.66645       -4.78595       -6.71477
H         -0.02695       -0.29218       -5.35182
N          1.05175        1.25205       -3.64116
O          0.68348        1.79411       -4.75131
O          1.29384        1.93934       -2.58663
