109
/cluster/projects/nn2506k/marcof/RuC_BondLength/evolutionary_desing/RUN28052021044732/Gen035/M00000214_I_DFT.out	Energy: -1126528.0218014
Ru         0.06324        0.61758        0.12604
C         -0.38169       -0.07373        1.74436
C          1.95342        0.16817       -0.19443
Cl        -1.13349       -1.00036       -1.22500
Cl         0.37813        2.90857        0.87633
H          0.21281       -0.66648        2.44154
H         -1.42494        0.15388        2.05535
N          2.55655        0.51566       -1.40395
N          2.91547       -0.39134        0.63108
C          4.10743        0.48085       -1.29512
C          1.78782        0.82628       -2.62172
C          4.27537       -0.60846       -0.10666
C          4.55700        1.94767       -0.91388
C          4.81066        0.03625       -2.61603
C          5.51560       -0.30309        0.79535
C          4.31595       -2.11858       -0.55878
C          5.96538       -1.30451        1.89616
H          5.37750        0.67211        1.26777
H          6.36534       -0.19215        0.10683
C          7.25634       -0.81558        2.59619
H          6.15972       -2.29820        1.47143
H          5.18456       -1.43739        2.65172
H          7.10745        0.16013        3.08581
H          7.57306       -1.52999        3.37206
H          8.08973       -0.70727        1.88278
C          5.59052       -2.74887       -1.19813
H          3.46889       -2.31599       -1.22092
H          4.12267       -2.68687        0.35659
C          5.54901       -4.29459       -1.11878
H          6.50601       -2.39640       -0.70287
H          5.68559       -2.46626       -2.25340
H          4.65190       -4.69775       -1.61531
H          6.42899       -4.73679       -1.61214
H          5.53905       -4.64684       -0.07505
C          6.05669        2.37112       -0.87048
H          4.08501        2.22702        0.03597
H          4.09266        2.58130       -1.67131
C          6.20137        3.91170       -0.93287
H          6.61951        1.93168       -1.70666
H          6.54674        2.02334        0.04651
H          5.65376        4.39858       -0.11028
H          7.25871        4.21015       -0.85274
H          5.81001        4.31858       -1.87862
C          4.87325        0.99830       -3.83470
H          4.36484       -0.90027       -2.95925
H          5.84909       -0.20105       -2.34322
C          5.67785        0.37020       -4.99771
H          5.34582        1.95157       -3.56169
H          3.86678        1.23831       -4.19388
H          5.21675       -0.56741       -5.34721
H          5.72098        1.05741       -5.85700
H          6.71470        0.14335       -4.69960
C          1.44277        2.17001       -2.98689
C          1.38175       -0.25296       -3.48115
C          1.80243        3.42971       -2.21340
C          0.71567        2.38834       -4.18407
H          0.94581        4.11709       -2.20471
H          2.63416        3.96067       -2.70568
H          2.06488        3.24606       -1.17399
C          0.31876        1.34859       -5.04410
H          0.45467        3.41751       -4.43994
C         -0.50836        1.61946       -6.29304
C          0.66973        0.03655       -4.66507
C         -2.04247        1.59011       -6.02510
H         -0.24289        2.60421       -6.71190
H         -0.27247        0.87063       -7.06724
C         -2.88553        1.85541       -7.29489
H         -2.31603        0.61106       -5.59785
H         -2.28856        2.34116       -5.25578
C         -4.40771        1.83033       -7.03116
H         -2.63649        1.10124       -8.06274
H         -2.60572        2.83522       -7.72158
H         -4.72768        0.85279       -6.63665
H         -4.97545        2.02144       -7.95577
H         -4.69733        2.59713       -6.29507
H          0.35884       -0.79758       -5.29669
C          1.64880       -1.72255       -3.19898
H          0.92129       -2.34281       -3.73675
H          1.54519       -1.96064       -2.13972
H          2.65001       -2.03193       -3.53578
C          2.67975       -0.84453        1.99768
C          2.19433       -2.16847        2.25579
C          2.93449        0.03711        3.09767
C          1.66671       -3.11966        1.18847
C          2.10348       -2.61176        3.59762
H          0.68041       -3.49994        1.49290
H          2.32159       -3.99544        1.06156
H          1.53694       -2.64027        0.21856
C          2.42334       -1.78846        4.69719
H          1.74579       -3.62773        3.78015
C          2.28178       -2.28722        6.12972
C          2.80697       -0.45970        4.41616
C          0.86719       -2.04166        6.73315
H          2.49803       -3.36741        6.17041
H          3.02780       -1.79069        6.77177
C          0.73168       -2.54832        8.18891
H          0.64067       -0.96265        6.69725
H          0.11258       -2.53866        6.10014
C         -0.67087       -2.30770        8.79036
H          1.48913       -2.05065        8.82021
H          0.96231       -3.62798        8.22239
H         -0.91957       -1.23457        8.80655
H         -0.72879       -2.68036        9.82529
H         -1.44991       -2.82209        8.20530
H          3.01041        0.22137        5.24539
C          3.30775        1.50339        2.94445
H          2.79881        2.09837        3.71554
H          3.00903        1.91276        1.97926
H          4.38940        1.66267        3.07969
