73
/cluster/projects/nn2506k/marcof/RuC_BondLength/evolutionary_desing/RUN28052021044732/Gen035/M00000215_I_DFT.out	Energy: -1017968.7269313
Ru         0.10211        0.58365        0.23087
C         -0.32813       -0.36505        1.71847
C          1.97441        0.16068       -0.15587
Cl        -1.09004       -0.75460       -1.38411
Cl         0.48184        2.73829        1.26470
H          0.26640       -1.08356        2.28636
H         -1.36064       -0.18124        2.08619
N          2.59002        0.63008       -1.32055
N          2.94414       -0.48237        0.60374
C          4.12179        0.54935       -1.23167
C          1.90165        1.11290       -2.52206
C          4.29885       -0.58570       -0.12572
C          4.69505        1.92326       -0.77759
C          4.77827        0.21075       -2.59103
C          5.49627       -0.34366        0.82748
C          4.49089       -2.01159       -0.71672
H          5.44706        0.61054        1.35352
H          6.42985       -0.36875        0.24796
H          5.55536       -1.14499        1.57472
H          3.69342       -2.30214       -1.40363
H          4.53271       -2.74498        0.09604
H          5.44709       -2.06916       -1.25314
H          4.24433        2.27868        0.15459
H          4.51498        2.67321       -1.55303
H          5.78179        1.85660       -0.63820
H          4.42790       -0.72844       -3.02212
H          5.86766        0.14350       -2.46112
H          4.58452        1.01171       -3.31572
C          1.66324        2.51058       -2.73914
C          1.51483        0.16103       -3.52542
C          1.99681        3.62824       -1.76368
C          1.06225        2.91523       -3.95351
H          1.12771        4.28979       -1.64629
H          2.82120        4.24755       -2.15245
H          2.25972        3.27456       -0.76942
C          0.69646        1.99257       -4.95195
H          0.87063        3.97384       -4.12600
C          0.92078        0.62077       -4.71947
C          0.07180        2.51235       -6.20805
H          0.61764       -0.10259       -5.47296
O         -0.25800        1.48403       -7.09692
O         -0.14092        3.72030       -6.46324
C         -0.90062        1.89219       -8.36456
H         -1.84798        2.41117       -8.16399
H         -0.23770        2.55677       -8.93576
H         -1.07435        0.95378       -8.90228
C          1.69274       -1.34280       -3.39760
H          0.79347       -1.85417       -3.76264
H          1.84474       -1.66147       -2.36752
H          2.54114       -1.69398       -4.00740
C          2.76255       -1.13614        1.89101
C          2.33253       -2.50416        1.95083
C          3.05982       -0.42401        3.09718
C          1.80563       -3.29061        0.75768
C          2.32078       -3.15508        3.20386
H          0.88473       -3.81906        1.04342
H          2.52250       -4.05718        0.42727
H          1.56140       -2.65449       -0.09427
C          2.68574       -2.48715        4.39234
H          2.00786       -4.19695        3.26628
C          3.02314       -1.11960        4.32736
C          2.66034       -3.25709        5.67547
H          3.25438       -0.58438        5.24592
O          3.02089       -2.46714        6.77076
O          2.35780       -4.46800        5.78343
C          3.02061       -3.13314        8.09186
H          2.01677       -3.51021        8.33081
H          3.73330       -3.96925        8.10032
H          3.32391       -2.35132        8.79645
C          3.37391        1.06245        3.15083
H          2.71829        1.55273        3.88462
H          3.21045        1.56456        2.19742
H          4.41126        1.23793        3.47663
