85
/cluster/projects/nn2506k/marcof/RuC_BondLength/evolutionary_desing/RUN28052021121055/Gen017/M00000138_I_DFT.out	Energy: -929324.9733342
Ru        -0.12361        0.10959       -0.03223
C         -0.54561       -0.94476        1.38421
C          1.82923        0.02463       -0.16831
Cl        -0.79679       -1.39712       -1.80141
Cl        -0.34265        2.24770        1.08851
H          0.11521       -1.50898        2.04554
H         -1.63443       -1.00526        1.60061
N          2.50537        0.70985       -1.17861
N          2.78240       -0.60228        0.62075
C          4.00839        0.49844       -1.13541
C          1.88536        1.23629       -2.39859
C          4.20800       -0.22712        0.23075
C          4.83436        1.80945       -1.41830
H          4.24477       -0.19115       -1.95462
C          5.22210       -1.42999        0.30521
H          4.54029        0.49909        0.98317
C          6.60443       -0.97365        0.84591
C          5.39270       -2.27305       -0.98297
H          4.81270       -2.10021        1.07414
H          7.12226       -0.29057        0.15884
H          7.25722       -1.84756        0.99333
H          6.50729       -0.46802        1.81908
H          4.43172       -2.59447       -1.40333
H          5.96882       -3.18204       -0.75055
H          5.94615       -1.73281       -1.76450
C          6.10146        1.51268       -2.26532
C          5.19219        2.67778       -0.18660
H          4.18493        2.41619       -2.06420
H          6.59778        2.45544       -2.54190
H          5.84508        0.99001       -3.19985
H          6.83775        0.90153       -1.72542
H          5.57582        3.65259       -0.52475
H          5.97804        2.21905        0.43088
H          4.32299        2.87512        0.45409
C          1.49353        2.60841       -2.46369
C          1.76711        0.38105       -3.53669
C          1.73694        3.56203       -1.30437
C          0.88122        3.09522       -3.65770
H          2.13316        3.04347       -0.43310
H          0.80980        4.04975       -0.98119
H          2.44859        4.35363       -1.59127
C          0.42575        4.54963       -3.74683
C          0.69279        2.22927       -4.77246
H         -0.66962        4.63267       -3.64147
H          0.69403        5.00019       -4.71276
H          0.86765        5.17371       -2.96546
C         -0.04070        2.72512       -6.01566
C          1.18476        0.89309       -4.72969
H         -0.68187        1.94142       -6.43944
H          0.66007        3.03732       -6.80977
H         -0.68563        3.58218       -5.79699
C          1.06233       -0.00872       -5.95370
H          1.03911        0.56498       -6.88720
H          0.13971       -0.61373       -5.91434
H          1.90154       -0.71092       -6.02846
C          2.22916       -1.06848       -3.50602
H          3.15387       -1.20855       -4.09195
H          1.46557       -1.72948       -3.93148
H          2.40886       -1.42050       -2.49034
C          2.57665       -1.28949        1.88703
C          2.35117       -2.69926        1.88558
C          2.68537       -0.55426        3.10424
C          2.16018       -3.45980        0.58005
C          2.25519       -3.38438        3.13328
H          2.13812       -2.78753       -0.27746
H          1.20722       -4.00848        0.57923
H          2.96041       -4.19844        0.41585
C          2.03212       -4.89437        3.16396
C          2.36903       -2.66164        4.35737
H          2.18889       -5.35839        2.18644
H          1.00534       -5.14679        3.47932
H          2.71579       -5.38718        3.87007
C          2.22732       -3.38421        5.69392
C          2.60202       -1.25540        4.34229
H          1.68420       -4.32979        5.59838
H          1.68461       -2.77312        6.42658
H          3.21226       -3.61732        6.13514
C          2.75086       -0.49867        5.65868
H          3.30043        0.44010        5.53485
H          3.28926       -1.09270        6.40845
H          1.76843       -0.24250        6.09239
C          2.83967        0.96074        3.10110
H          3.84759        1.27217        3.42266
H          2.12166        1.42670        3.78915
H          2.64317        1.38974        2.11797
