76
/cluster/projects/nn2506k/marcof/RuC_BondLength/evolutionary_desing/RUN28052021121055/Gen017/M00000137_I_DFT.out	Energy: -936390.0139731
Ru        -0.20011       -0.13538       -0.19250
C         -0.52103       -0.92372        1.41210
C          1.74023       -0.21235       -0.38286
Cl        -0.83758       -1.93398       -1.67368
Cl        -0.46997        2.16545        0.48953
H          0.19647       -1.31182        2.13857
H         -1.59604       -0.99414        1.68517
N          2.37957        0.41289       -1.45232
N          2.73083       -0.81579        0.39134
C          3.84893        0.19684       -1.45330
C          1.78051        1.15013       -2.55781
C          4.12416       -0.41955       -0.06224
H          4.13498       -0.47049       -2.27897
H          4.37985        1.14758       -1.58951
C          5.18471       -1.52124       -0.04999
H          4.50044        0.34606        0.62828
C          5.17499       -2.63419       -0.92479
N          6.19621       -1.31771        0.85041
C          6.22893       -3.56685       -0.86349
H          4.36094       -2.77679       -1.63323
C          7.27070       -3.36545        0.06707
H          6.23721       -4.43163       -1.52852
C          7.20875       -2.22745        0.89858
H          8.10502       -4.06288        0.14557
H          7.99267       -2.02517        1.63111
C          1.70968        2.57208       -2.47428
C          1.40705        0.45102       -3.74337
C          2.29666        3.32451       -1.28904
C          1.09864        3.28801       -3.54300
H          2.63569        2.64697       -0.50321
H          1.55708        3.99099       -0.82945
H          3.15480        3.94117       -1.60562
C          0.97386        4.80665       -3.47169
C          0.58788        2.58620       -4.67381
H          1.10407        5.27419       -4.45650
H          1.71702        5.25094       -2.80186
H         -0.01864        5.10796       -3.09391
C         -0.17437        3.34408       -5.75688
C          0.79792        1.18256       -4.80347
H         -0.92079        2.70736       -6.24602
H          0.49837        3.72409       -6.54596
H         -0.70948        4.20728       -5.34412
C          0.36109        0.46219       -6.07549
H          0.92337       -0.46288       -6.23945
H          0.49988        1.08746       -6.96696
H         -0.70659        0.18486       -6.03221
C          1.68523       -1.03642       -3.90733
H          0.78558       -1.58623       -4.20699
H          2.02881       -1.49381       -2.97807
H          2.45430       -1.20228       -4.68100
C          2.60267       -1.48035        1.67978
C          2.36910       -2.88565        1.72354
C          2.79754       -0.71547        2.86719
C          2.08738       -3.67652        0.45405
C          2.35095       -3.53845        2.99219
H          2.03795       -3.03119       -0.42291
H          1.11849       -4.19228        0.51786
H          2.85688       -4.44308        0.27587
C          2.11032       -5.04365        3.07764
C          2.56342       -2.78980        4.18705
H          2.85507       -5.53331        3.72194
H          2.15978       -5.52993        2.09991
H          1.11726       -5.27195        3.50060
C          2.52049       -3.48222        5.54631
C          2.80732       -1.38671        4.12310
H          2.04456       -2.84970        6.30676
H          3.53536       -3.71808        5.91179
H          1.96207       -4.42321        5.51485
C          3.07678       -0.60150        5.40334
H          3.65759        0.30695        5.21134
H          3.64249       -1.19726        6.13070
H          2.13979       -0.28978        5.89750
C          2.95152        0.79891        2.81335
H          3.99570        1.10923        2.98365
H          2.33881        1.28299        3.58566
H          2.62342        1.20959        1.85593
