92
/cluster/projects/nn2506k/marcof/RuC_BondLength/evolutionary_desing/RUN28052021044732/Gen025/M00000166_I_DFT.out	Energy: -1031993.1331108
Ru         0.04360        0.39312        0.08169
C         -0.30461       -0.27355        1.73503
C          1.92391       -0.03929       -0.29139
Cl        -1.25951       -1.22775       -1.16110
Cl         0.37801        2.70824        0.71566
H          0.33548       -0.86867        2.38923
H         -1.32386       -0.04280        2.11409
N          2.48939        0.32245       -1.51512
N          2.93125       -0.55988        0.51492
C          3.99559        0.38796       -1.40294
C          1.75610        0.86984       -2.65772
C          4.31989       -0.59426       -0.19518
C          4.78878        0.32081       -2.68897
H          4.21693        1.39384       -1.02849
C          5.50474       -0.05367        0.68719
C          4.71662       -2.03469       -0.68450
C          5.80035        1.46313        0.81676
H          6.41934       -0.50820        0.27733
H          5.38887       -0.48087        1.69189
C          6.91610        1.73181        1.85500
H          4.90521        2.03233        1.09765
H          6.14191        1.86382       -0.14935
H          7.84803        1.20969        1.58474
H          7.14250        2.80761        1.91724
H          6.62448        1.39247        2.86088
C          5.31459       -3.06065        0.31725
H          5.48671       -1.88072       -1.45244
H          3.86264       -2.49322       -1.19797
C          5.65639       -4.39522       -0.38727
H          4.63047       -3.25655        1.14910
H          6.23814       -2.66159        0.76273
H          6.38102       -4.24605       -1.20397
H          6.09816       -5.11107        0.32383
H          4.76008       -4.86586       -0.82115
C          5.65984        1.31737       -3.11402
S          4.75559       -1.01184       -3.92834
C          6.31337        1.06505       -4.36905
H          5.82521        2.22899       -2.54381
C          5.94004       -0.13633       -4.94031
H          7.02025        1.75282       -4.82890
H          6.25499       -0.57664       -5.88055
C          1.72154        2.27947       -2.88061
C          1.14664       -0.03946       -3.57641
C          2.44584        3.26075       -1.97147
C          0.99638        2.78299       -3.99813
H          1.82611        4.14037       -1.76455
H          3.37883        3.61656       -2.44045
H          2.68103        2.82857       -0.99898
C          0.98501        4.28432       -4.27098
C          0.27579        1.89392       -4.84553
H          0.21480        4.80099       -3.67191
H          0.78492        4.50835       -5.32466
H          1.94766        4.74788       -4.02173
C         -0.60557        2.45504       -5.95817
C          0.38008        0.48554       -4.65728
H         -1.38626        1.74819       -6.25718
H         -0.02054        2.69683       -6.86292
H         -1.11116        3.37679       -5.64278
C         -0.34329       -0.45579       -5.61613
H         -0.00622       -1.49107       -5.52109
H         -0.19822       -0.15979       -6.66508
H         -1.42941       -0.45637       -5.42271
C          1.31126       -1.54464       -3.43718
H          1.94756       -1.80305       -2.59044
H          1.77025       -1.96999       -4.34140
H          0.34527       -2.03801       -3.27890
C          2.70816       -1.23265        1.79423
C          2.23904       -2.58445        1.82044
C          2.94818       -0.52390        3.01206
C          1.74161       -3.29159        0.56824
C          2.18532       -3.27284        3.06873
H          0.67245       -3.53091        0.66333
H          2.27390       -4.23719        0.39075
H          1.83196       -2.67451       -0.32246
C          1.69639       -4.71721        3.13029
C          2.60187       -2.62385        4.26682
H          1.05250       -4.97420        2.28385
H          1.12013       -4.91025        4.04448
H          2.53915       -5.43084        3.12265
C          2.65142       -3.40517        5.57582
C          2.92516       -1.23710        4.24788
H          2.95048       -4.44823        5.41333
H          1.66740       -3.42522        6.07635
H          3.36368       -2.97007        6.28563
C          3.23780       -0.52396        5.56085
H          3.27272        0.56277        5.45058
H          4.21571       -0.83847        5.96355
H          2.48732       -0.74946        6.33274
C          3.12266        0.98713        3.01803
H          4.09854        1.30055        3.41464
H          2.35198        1.45260        3.65000
H          2.99649        1.40836        2.02232
