112
/cluster/projects/nn2506k/marcof/RuC_BondLength/evolutionary_desing/RUN28052021044732/Gen025/M00000167_I_DFT.out	Energy: -1232207.2681382
Ru        -0.19850       -0.06179       -0.12722
C         -0.60682       -0.70775        1.52037
C          1.73355       -0.34184       -0.34868
Cl        -1.13566       -1.88018       -1.42308
Cl        -0.24061        2.28994        0.46365
H          0.04265       -1.16742        2.26728
H         -1.67945       -0.60302        1.79365
N          2.39651        0.19125       -1.45450
N          2.67823       -0.98900        0.44016
C          3.88370        0.16380       -1.23801
C          1.76953        0.94415       -2.54147
C          4.08946       -1.04232       -0.22944
C          4.73781        0.25138       -2.50105
H          4.13689        1.06473       -0.65787
C          5.27198       -0.66627        0.72564
C          4.28921       -2.44882       -0.88590
C          5.76506       -1.66044        1.81028
H          5.03886        0.28952        1.21286
H          6.12422       -0.46098        0.05711
C          7.08904       -1.18200        2.45949
H          5.00898       -1.77848        2.59374
H          5.92504       -2.65956        1.38225
C          7.60124       -2.12647        3.57347
H          7.86726       -1.08472        1.68070
H          6.94633       -0.17047        2.88096
C          8.92371       -1.65669        4.22659
H          7.74430       -3.13905        3.15538
H          6.82551       -2.22205        4.35402
C          9.43183       -2.60210        5.33803
H          8.78238       -0.64501        4.64650
H          9.70056       -1.56151        3.44729
H          8.69560       -2.69191        6.15297
H          9.62048       -3.61434        4.94560
H         10.37252       -2.23288        5.77652
C          5.67960       -2.82454       -1.46880
H          3.54103       -2.56629       -1.67917
H          4.05410       -3.19045       -0.11455
C          5.64631       -4.21931       -2.14479
H          6.01299       -2.08905       -2.20867
H          6.44232       -2.84122       -0.67677
C          7.01637       -4.65879       -2.71504
H          5.29929       -4.97314       -1.41501
H          4.90002       -4.20857       -2.95808
C          6.98665       -6.04781       -3.39782
H          7.76450       -4.67223       -1.90184
H          7.36579       -3.90534       -3.44372
C          8.35405       -6.48337       -3.97037
H          6.23872       -6.03685       -4.21017
H          6.63998       -6.80298       -2.67035
H          9.11818       -6.54215       -3.17849
H          8.28946       -7.47454       -4.44680
H          8.71426       -5.77036       -4.72952
C          5.80361        1.18629       -2.53953
N          4.45177       -0.54974       -3.56968
C          6.60023        1.28847       -3.69763
H          6.00248        1.82863       -1.68156
C          6.30161        0.46590       -4.80317
H          7.42528        2.00099       -3.73894
C          5.21708       -0.43043       -4.68730
H          6.88103        0.51773       -5.72523
H          4.94471       -1.08254       -5.52014
C          1.82329        2.37107       -2.52152
C          1.18605        0.23948       -3.63871
C          2.50744        3.13469       -1.39647
C          1.21707        3.10038       -3.58231
H          2.59743        2.53343       -0.49109
H          1.92882        4.02017       -1.11262
H          3.51218        3.47753       -1.69890
C          1.30180        4.62398       -3.59346
C          0.51716        2.41276       -4.61491
H          2.26116        4.97908       -3.19655
H          0.50874        5.07899       -2.97457
H          1.20297        5.03284       -4.60539
C         -0.25049        3.20612       -5.66929
C          0.53395        0.98944       -4.66316
H          0.40659        3.54658       -6.48899
H         -0.71889        4.09930       -5.23647
H         -1.05175        2.61280       -6.12205
C         -0.14474        0.26873       -5.82520
H          0.17052       -0.77459       -5.90816
H          0.07280        0.75333       -6.78762
H         -1.24155        0.26195       -5.70320
C          1.27599       -1.27207       -3.76252
H          1.85861       -1.54359       -4.65538
H          0.28407       -1.73094       -3.84092
H          1.77631       -1.71715       -2.90532
C          2.42252       -1.56084        1.75569
C          2.02932       -2.92814        1.88101
C          2.57193       -0.72793        2.90930
C          1.62210       -3.76201        0.67344
C          1.91517       -3.49421        3.18519
H          1.57342       -3.16731       -0.23726
H          0.61893       -4.18410        0.82748
H          2.30371       -4.60828        0.49613
C          1.54126       -4.96391        3.35002
C          2.12106       -2.69015        4.34326
H          2.09958       -5.43252        4.17136
H          1.74197       -5.54743        2.44632
H          0.46829       -5.08519        3.58044
C          1.97005       -3.32377        5.72299
C          2.42955       -1.30452        4.20677
H          1.07371       -3.95740        5.77775
H          1.88993       -2.58104        6.52154
H          2.83163       -3.97025        5.96355
C          2.60850       -0.44503        5.45671
H          3.33704       -0.89199        6.15000
H          1.66163       -0.33508        6.01089
H          2.96129        0.56305        5.22614
C          2.81669        0.76997        2.77721
H          3.77794        1.07335        3.22053
H          2.02734        1.33779        3.29034
H          2.80361        1.09472        1.73741
