82
/cluster/projects/nn2506k/marcof/RuC_BondLength/evolutionary_desing/RUN28052021044732/Gen008/M00000077_I_DFT.out	Energy: -985686.0826893
Ru        -0.06947        0.12923        0.03135
C         -0.36128       -0.55984        1.68636
C          1.84129       -0.15175       -0.30137
Cl        -1.10966       -1.64053       -1.24640
Cl        -0.03132        2.46919        0.65531
H          0.34100       -1.05393        2.36083
H         -1.40697       -0.45562        2.04842
N          2.44279        0.33539       -1.46683
N          2.83753       -0.74118        0.46905
C          3.94006        0.35045       -1.32010
C          1.75758        1.01041       -2.56873
C          4.19893       -0.77969       -0.25791
C          4.76918        0.32221       -2.60271
H          4.20148        1.29699       -0.82253
C          5.38380       -0.38982        0.65830
C          4.47915       -2.18506       -0.84564
H          5.25919        0.60290        1.10253
H          6.30683       -0.38380        0.06087
H          5.51577       -1.11858        1.46747
H          3.71580       -2.49816       -1.56151
H          4.53964       -2.91784       -0.03295
H          5.44429       -2.18492       -1.36765
C          5.75553        1.32290       -2.79537
N          4.56737       -0.66831       -3.52231
C          6.55595        1.29964       -3.95558
H          5.89137        2.10995       -2.05349
C          6.34521        0.28031       -4.90631
H          7.31852        2.06315       -4.11548
C          5.33873       -0.67404       -4.64230
H          6.93372        0.22463       -5.82235
H          5.13685       -1.47910       -5.35231
C          1.75688        2.43746       -2.62418
C          1.17764        0.22708       -3.61303
C          2.45113        3.28453       -1.56709
C          1.09058        3.08613       -3.70192
H          2.62158        2.73060       -0.64341
H          1.83895        4.14942       -1.28921
H          3.41791        3.66834       -1.93691
C          1.11062        4.60942       -3.79211
C          0.39548        2.31803       -4.67964
H          0.97716        4.96106       -4.82149
H          2.06044        5.02423       -3.43240
H          0.31002        5.06291       -3.18183
C         -0.43339        3.02279       -5.75044
C          0.47373        0.89590       -4.65852
H         -0.91630        3.92520       -5.35475
H         -1.22954        2.37822       -6.13789
H          0.18355        3.33328       -6.61217
C         -0.20081        0.08842       -5.76419
H         -1.29015        0.02199       -5.59993
H          0.17414       -0.93722       -5.81663
H         -0.04700        0.54314       -6.75281
C          1.31540       -1.28573       -3.65251
H          0.33623       -1.77735       -3.67709
H          1.85278       -1.66391       -2.78531
H          1.88246       -1.59311       -4.54384
C          2.70555       -1.34129        1.78923
C          2.37582       -2.72588        1.91361
C          2.95326       -0.53337        2.94250
C          1.89587       -3.54423        0.72186
C          2.40574       -3.32596        3.20679
H          1.74201       -2.92820       -0.16297
H          0.92941       -4.01619        0.94942
H          2.59568       -4.35195        0.45814
C          2.09754       -4.81138        3.36804
C          2.70465       -2.54311        4.35960
H          2.75959       -5.28231        4.10709
H          2.21278       -5.36377        2.43057
H          1.06191       -4.97509        3.71391
C          2.70836       -3.21129        5.73122
C          2.96528       -1.14740        4.23052
H          2.64865       -2.48908        6.55049
H          3.62580       -3.80538        5.88584
H          1.86074       -3.90091        5.84471
C          3.25635       -0.31450        5.47719
H          4.04155       -0.77700        6.09351
H          2.36247       -0.21360        6.11526
H          3.59179        0.69721        5.23576
C          3.12490        0.97621        2.82508
H          4.11995        1.30837        3.15956
H          2.38258        1.49794        3.44625
H          2.97337        1.32442        1.80335
