114
/cluster/projects/nn2506k/marcof/RuC_BondLength/evolutionary_desing/RUN28052021044732/Gen004/M00000055_I_DFT.out	Energy: -1219858.2860801
Ru         0.04279       -0.26226       -0.23034
C         -0.28818       -0.55273        1.53458
C          2.00411       -0.16801       -0.24495
Cl        -0.21703       -2.41960       -1.27545
Cl        -0.91049        1.94434       -0.44459
H          0.43010       -0.50097        2.35722
H         -1.34294       -0.76521        1.80574
N          2.93112       -0.86027        0.54515
N          2.72462        0.52481       -1.22737
C          4.32992       -0.54158        0.13612
C          2.72936       -1.53724        1.82451
C          4.20946        0.10882       -1.26560
H          4.93625       -1.45217        0.12894
H          4.78831        0.15255        0.85166
C          4.45527       -0.90107       -2.43151
C          5.19554        1.29496       -1.43454
C          5.92881       -1.36641       -2.54948
H          3.79716       -1.77076       -2.32157
H          4.17779       -0.40124       -3.36810
C          6.90101       -0.17215       -2.66720
H          6.21248       -1.98247       -1.67904
H          6.02180       -2.02378       -3.43010
C          6.67211        0.83074       -1.51502
H          6.73877        0.33888       -3.63230
H          7.94481       -0.52709       -2.66682
H          7.31238        1.71827       -1.65101
H          6.98276        0.37223       -0.56011
H          5.05720        2.00483       -0.61377
H          4.94953        1.82951       -2.36379
C          2.89233       -0.77832        3.03008
C          2.37528       -2.94188        1.91729
C          3.30847        0.69416        3.06277
C          2.61409       -1.37092        4.28289
C          4.71696        0.92788        3.68780
H          3.27266        1.14243        2.06733
H          2.57522        1.24993        3.67163
C          5.11924        2.42087        3.75769
H          4.73805        0.50400        4.70454
H          5.47627        0.37135        3.11261
C          6.50008        2.64954        4.41219
H          4.35204        2.97825        4.32375
H          5.12489        2.84965        2.74044
H          6.51974        2.26904        5.44598
H          6.75178        3.72138        4.44608
H          7.29843        2.13588        3.85267
C          2.19815       -2.71394        4.39551
H          2.70428       -0.76048        5.18272
C          1.92552       -3.34451        5.75657
C          2.10051       -3.46987        3.21741
C          3.19582       -3.93824        6.43317
H          1.48963       -2.59026        6.43265
H          1.17576       -4.14576        5.65305
C          2.90965       -4.56636        7.81810
H          3.63651       -4.70021        5.76812
H          3.95403       -3.14409        6.54009
C          4.16672       -5.15971        8.49250
H          2.14713       -5.35789        7.70886
H          2.46733       -3.80145        8.48086
H          4.61367       -5.95470        7.87420
H          3.92323       -5.59632        9.47413
H          4.93665       -4.38761        8.65130
H          1.83363       -4.52144        3.29935
N          2.24144       -3.82198        0.83171
C          3.14508       -3.86700       -0.32000
C          1.30131       -4.95081        0.89310
H          4.02832       -3.25144       -0.14660
H          2.64649       -3.54312       -1.24582
H          3.49988       -4.90339       -0.46686
H          0.94886       -5.16986       -0.12385
H          0.41907       -4.68883        1.48881
H          1.75625       -5.87260        1.30875
C          2.18514        1.52095       -2.15365
C          1.55678        1.13228       -3.38038
C          2.34342        2.92864       -1.86340
C          1.29095       -0.31709       -3.79098
C          1.09903        2.13706       -4.26825
C          1.81570       -0.72366       -5.19791
H          1.69180       -1.01126       -3.05067
H          0.20059       -0.47927       -3.78413
C          1.52716       -2.20763       -5.53269
H          1.35154       -0.09342       -5.97320
H          2.90100       -0.53922       -5.26451
C          2.01829       -2.62282       -6.93729
H          0.44186       -2.39254       -5.45526
H          1.99996       -2.85507       -4.77407
H          1.53115       -2.02458       -7.72427
H          1.79551       -3.68272       -7.13846
H          3.10712       -2.48456       -7.03935
C          1.26454        3.50971       -4.01664
H          0.58460        1.82918       -5.17869
C          0.78296        4.56291       -5.00630
C          1.88963        3.87741       -2.80864
C          1.87240        4.99670       -6.03039
H         -0.08838        4.17870       -5.56103
H          0.43855        5.45660       -4.46035
C          1.37444        6.06667       -7.03135
H          2.74898        5.38572       -5.48452
H          2.22097        4.10903       -6.58534
C          2.45197        6.50063       -8.04999
H          1.02282        6.95238       -6.47303
H          0.49586        5.67599       -7.57458
H          3.33027        6.93172       -7.54304
H          2.05999        7.26077       -8.74431
H          2.79979        5.64554       -8.65162
H          1.98784        4.93630       -2.57353
N          2.97176        3.40873       -0.65277
C          3.80719        4.62129       -0.77705
C          2.13636        3.44857        0.57051
H          4.42365        4.56994       -1.68357
H          4.47984        4.67640        0.09420
H          3.23161        5.57070       -0.80209
H          2.78541        3.60343        1.44477
H          1.58259        2.51834        0.69088
H          1.39369        4.27126        0.54115
