75
/cluster/projects/nn2506k/marcof/RuC_BondLength/evolutionary_desing/RUN28052021044948/Gen025/M00000168_I_DFT.out	Energy: -990626.8863059
Ru        -0.18924       -1.15011       -0.55831
C         -0.44264       -1.24426        1.23917
C          1.71398       -0.75117       -0.68275
Cl        -0.08569       -3.47287       -1.18961
Cl        -1.34193        0.93080       -0.95260
H          0.23900       -0.92941        2.03283
H         -1.44031       -1.60520        1.56380
N          2.30180       -0.15000       -1.80844
N          2.76075       -1.10288        0.16751
C          3.84482       -0.33588       -1.84206
C          1.59820        0.66726       -2.77676
C          4.07615       -0.61728       -0.33157
C          4.25062       -1.59697       -2.69611
C          4.60040        0.94900       -2.28650
H          4.84372       -1.38074       -0.16412
H          4.36560        0.29214        0.21603
C          4.49628       -1.41943       -4.21245
H          5.18163       -1.99374       -2.25744
H          3.48355       -2.36738       -2.54284
H          4.66078       -2.40915       -4.66623
H          5.38767       -0.81268       -4.42218
H          3.64632       -0.96673       -4.73153
C          6.13741        0.88946       -2.09929
H          4.37583        1.15972       -3.34013
H          4.22715        1.80093       -1.70829
H          6.58278        1.83346       -2.44924
H          6.60471        0.07530       -2.66784
H          6.42182        0.77054       -1.04319
C          1.46714        2.07934       -2.57688
C          1.03610        0.13384       -3.96937
C          1.82786        2.77696       -1.27468
C          0.89384        2.87417       -3.59452
H          0.91151        3.19259       -0.83139
H          2.52264        3.61319       -1.44781
H          2.26275        2.10652       -0.53228
C          0.39358        2.33705       -4.80195
H          0.78275        3.94172       -3.40483
C          0.45316        0.93203       -4.96267
C         -0.20519        3.20709       -5.85836
H          0.06534        0.45979       -5.86211
C         -1.35213        2.79261       -6.58753
C          0.35531        4.47757       -6.15983
C         -1.91672        3.61738       -7.58097
H         -1.82597        1.83855       -6.35442
C         -1.34702        4.87626       -7.87135
H         -2.80497        3.28199       -8.11926
C         -0.20748        5.30203       -7.15472
H         -1.78452        5.51473       -8.64075
H          0.24637        6.27015       -7.37451
H          1.25009        4.81158       -5.63316
Cl         0.96795       -1.65969       -4.26388
C          2.75025       -1.68937        1.48313
C          2.71749       -0.87233        2.64354
C          2.93277       -3.09501        1.67159
C          2.77621       -1.38774        3.94541
Cl         2.56711        0.94105        2.49047
C          2.89809       -2.78597        4.14088
H          2.69593       -0.71178        4.79334
C          2.98618       -3.60586        2.98870
C          2.94511       -3.36648        5.51689
H          3.13569       -4.67719        3.11495
C          3.62900       -2.70295        6.57108
C          2.30429       -4.60105        5.80801
C          3.67239       -3.25387        7.86738
H          4.15443       -1.76797        6.37280
C          3.03052       -4.48119        8.14168
H          4.21186       -2.73035        8.65865
C          2.34568       -5.15134        7.10473
H          3.06266       -4.90723        9.14580
H          1.83661       -6.09539        7.30650
H          1.74547       -5.11780        5.02712
C          3.10750       -4.04181        0.49971
H          3.23380       -5.07312        0.85309
H          3.99530       -3.78441       -0.09740
H          2.24192       -4.01469       -0.17155
