83
/cluster/projects/nn2506k/marcof/RuC_BondLength/evolutionary_desing/RUN28052021044948/Gen020/M00000142_I_DFT.out	Energy: -928589.6687575
Ru         0.11124        0.64484       -0.00912
C         -0.34421        0.14353        1.67564
C          1.95155        0.02581       -0.25388
Cl        -1.06525       -1.06927       -1.24020
Cl         0.53711        2.98791        0.39921
H          0.24330       -0.39062        2.42501
H         -1.37698        0.43192        1.96952
N          2.61462        0.25053       -1.45551
N          2.83501       -0.64687        0.58539
C          4.00635       -0.25780       -1.45661
C          2.11374        0.90524       -2.65489
C          4.19146       -0.91947       -0.05934
H          4.70935        0.57206       -1.61619
H          4.14366       -0.97688       -2.27585
C          4.58104       -2.42704       -0.16569
C          5.41944       -0.34191        0.70939
C          6.10307       -2.41914       -0.47545
H          3.99401       -2.96044       -0.92429
H          4.40143       -2.91396        0.80102
C          6.64433       -1.05573        0.07758
H          6.60372       -3.27996       -0.00923
H          6.28671       -2.49516       -1.55767
H          7.07255       -0.45377       -0.73803
H          7.44430       -1.19883        0.81821
H          5.33947       -0.61156        1.77016
H          5.48106        0.75182        0.64395
C          2.34304        2.30163       -2.84530
C          1.52024        0.11871       -3.68905
C          3.17323        3.14395       -1.89041
C          1.83802        2.90927       -4.01772
H          2.79866        4.17478       -1.85383
H          4.22075        3.18647       -2.23752
H          3.16130        2.76090       -0.86780
C          1.15688        2.17762       -5.01520
H          1.98832        3.98233       -4.15250
C          0.55758        2.87268       -6.23051
C          1.03622        0.78108       -4.83983
C         -0.91359        3.33193       -6.00550
H          1.16418        3.75459       -6.49484
H          0.58476        2.19596       -7.10056
C         -1.52427        4.03767       -7.23952
H         -1.52863        2.45576       -5.73999
H         -0.95104        4.01043       -5.13676
C         -2.98386        4.49427       -7.01984
H         -1.48255        3.35610       -8.10787
H         -0.90447        4.91317       -7.50345
H         -3.63870        3.63882       -6.78948
H         -3.38489        4.99162       -7.91735
H         -3.05722        5.20508       -6.18136
H          0.55728        0.18542       -5.61947
C          1.46199       -1.39942       -3.64290
H          2.36399       -1.82837       -4.11420
H          0.59357       -1.77252       -4.20042
H          1.38400       -1.78844       -2.62535
C          2.57681       -1.08994        1.94329
C          2.88683       -0.23148        3.04448
C          2.03735       -2.39339        2.17877
C          3.32566        1.21705        2.88392
C          2.72255       -0.72999        4.35843
H          2.65139        1.87742        3.44910
H          3.30483        1.55385        1.84610
H          4.34077        1.37239        3.28204
C          2.25073       -2.03457        4.62224
H          2.95609       -0.06864        5.19585
C          2.12812       -2.55764        6.04779
C          1.89706       -2.83660        3.51517
C          3.41474       -3.27268        6.55583
H          1.89653       -1.72480        6.73169
H          1.28497       -3.26461        6.11394
C          3.28200       -3.80295        8.00348
H          3.65481       -4.10999        5.87869
H          4.26508       -2.57207        6.49787
C          4.55506       -4.51485        8.51268
H          2.42758       -4.50050        8.05911
H          3.03941       -2.96317        8.67846
H          4.80610       -5.38329        7.88277
H          4.42169       -4.87738        9.54420
H          5.42238       -3.83534        8.50648
H          1.48169       -3.83178        3.68940
C          1.53561       -3.30930        1.07159
H          0.46023       -3.50174        1.20344
H          2.04690       -4.28413        1.10043
H          1.65955       -2.88125        0.07574
