73
/cluster/projects/nn2506k/marcof/RuC_BondLength/evolutionary_desing/RUN28052021044948/Gen006/M00000069_I_DFT.out	Energy: -830719.9785654
Ru        -0.18959       -0.17001       -0.04007
C         -0.37593       -0.64478        1.70336
C          1.74571       -0.07785       -0.28134
Cl        -0.52258       -2.31972       -1.09825
Cl        -0.89356        2.13198        0.15852
H          0.40101       -0.75192        2.46460
H         -1.42149       -0.82685        2.03177
N          2.32396        0.41336       -1.46003
N          2.77957       -0.53591        0.52672
C          3.82070        0.07544       -1.55490
C          1.64875        1.26436       -2.44514
C          4.11627       -0.25728       -0.06713
C          4.69304        1.24239       -2.07099
C          4.07670       -1.16760       -2.45398
H          4.76256       -1.13769        0.03630
H          4.59606        0.58357        0.45907
H          4.63698        2.12315       -1.42482
H          4.40288        1.53678       -3.08757
H          5.74217        0.91256       -2.10405
H          3.85395       -0.95131       -3.50436
H          3.47682       -2.02964       -2.14082
H          5.13962       -1.44653       -2.38653
C          1.63693        2.67868       -2.23058
C          1.07104        0.69729       -3.62272
C          2.22875        3.31291       -0.98057
C          1.01288        3.52265       -3.19222
H          2.58403        2.56660       -0.27101
H          1.47107        3.91290       -0.46118
H          3.07163        3.97916       -1.22464
C          0.97350        5.03099       -2.96775
C          0.39616        2.96393       -4.34774
H          0.05201        5.32883       -2.43766
H          1.00204        5.58681       -3.91299
H          1.81598        5.38250       -2.36241
C         -0.35081        3.87321       -5.31973
C          0.45685        1.56109       -4.57936
H         -1.10848        3.32787       -5.89189
H          0.33190        4.34667       -6.04718
H         -0.87081        4.68180       -4.79101
C         -0.14935        0.97752       -5.85347
H          0.26285       -0.00653       -6.09603
H          0.03323        1.62543       -6.72107
H         -1.24254        0.85424       -5.76178
C          1.05859       -0.80233       -3.87642
H          0.04378       -1.15346       -4.10402
H          1.39244       -1.36819       -3.01018
H          1.69661       -1.07227       -4.73378
C          2.77055       -1.11785        1.85943
C          2.76939       -2.53580        2.00025
C          2.89273       -0.25315        2.98811
C          2.66515       -3.44356        0.78397
C          2.85455       -3.09520        3.30919
H          3.59428       -4.01741        0.63008
H          2.45458       -2.87942       -0.12399
H          1.84761       -4.16863        0.89657
C          2.85950       -4.60951        3.49582
C          2.93571       -2.24389        4.44965
H          3.58378       -4.92033        4.26111
H          3.11508       -5.13980        2.57375
H          1.87038       -4.97992        3.81641
C          2.96574       -2.85184        5.84890
C          2.98912       -0.82802        4.28862
H          3.99714       -3.07676        6.17315
H          2.40169       -3.79071        5.89594
H          2.53203       -2.17808        6.59666
C          3.14741        0.06874        5.51349
H          3.50343        1.06960        5.25072
H          3.86616       -0.35198        6.22970
H          2.19202        0.19657        6.05150
C          2.88643        1.26064        2.81999
H          2.15519        1.73304        3.49134
H          2.61706        1.55493        1.80505
H          3.87031        1.69995        3.05372
