98
/cluster/projects/nn2506k/marcof/RuC_BondLength/evolutionary_desing/RUN28052021044732/Gen016/M00000118_I_DFT.out	Energy: -1081293.1923166
Ru        -0.05804       -0.36784       -0.29326
C         -0.41661       -0.98169        1.37837
C          1.89583       -0.32393       -0.39483
Cl        -0.36225       -2.41756       -1.54429
Cl        -0.72225        1.92726        0.11700
H          0.27992       -1.19376        2.19303
H         -1.49573       -1.13228        1.59665
N          2.53294        0.16358       -1.54070
N          2.87803       -0.80282        0.46885
C          4.03983        0.24253       -1.29406
C          1.84027        0.82403       -2.64804
C          4.24557       -0.94789       -0.28724
C          4.97251        0.34264       -2.48793
H          4.18797        1.17021       -0.71876
C          5.48417       -0.76873        0.64725
C          4.26143       -2.35171       -1.04260
C          5.97559        0.65079        1.02519
H          5.28772       -1.33273        1.56985
H          6.32110       -1.28055        0.16241
C          7.11405        0.64041        2.08262
H          6.34380        1.17328        0.12757
H          5.15241        1.25073        1.42737
C          8.45582        0.03345        1.60920
H          6.76875        0.10612        2.98519
H          7.29595        1.68376        2.39459
H          9.22782        0.14490        2.38687
H          8.82184        0.53974        0.70139
H          8.37083       -1.04054        1.38561
C          5.21565       -3.47450       -0.55309
H          3.24133       -2.74204       -1.02784
H          4.48034       -2.16487       -2.09668
C          4.97042       -4.83880       -1.25710
H          6.26942       -3.19637       -0.72366
H          5.11320       -3.62049        0.53205
C          5.33638       -4.88384       -2.75942
H          3.91434       -5.13317       -1.13530
H          5.56699       -5.60454       -0.73051
H          4.70916       -4.20874       -3.35967
H          5.19866       -5.90054       -3.15965
H          6.38976       -4.60263       -2.92248
C          6.13416       -0.36412       -2.77688
S          4.84093        1.75941       -3.63433
C          6.90395        0.14705       -3.87941
H          6.46260       -1.23162       -2.21677
C          6.35592        1.27835       -4.45000
H          7.82489       -0.31573       -4.22928
H          6.70246        1.85584       -5.30051
C          1.57894        2.22657       -2.57879
C          1.49096        0.06660       -3.80686
C          2.09733        3.08825       -1.43846
C          0.83755        2.84314       -3.62594
H          2.45352        2.49259       -0.59907
H          1.31107        3.74030       -1.04394
H          2.92662        3.72986       -1.78066
C          0.54659        4.33854       -3.55286
C          0.36101        2.06604       -4.72010
H          0.32784        4.76736       -4.53675
H          1.39804        4.89612       -3.14232
H         -0.31782        4.54585       -2.89856
C         -0.55652        2.69978       -5.76251
C          0.74217        0.69834       -4.84190
H         -1.23450        3.43125       -5.30537
H         -1.18359        1.95148       -6.25916
H          0.01130        3.22653       -6.54949
C          0.34329       -0.09567       -6.08269
H         -0.67411       -0.51277       -5.98380
H          1.01681       -0.93923       -6.26421
H          0.35574        0.52686       -6.98663
C          1.93158       -1.37738       -3.97322
H          2.37693       -1.76628       -3.06120
H          2.67630       -1.46010       -4.78242
H          1.08790       -2.03199       -4.22260
C          2.72844       -1.11696        1.88692
C          2.57558       -2.47124        2.32060
C          2.75772       -0.05252        2.84531
C          2.17627       -3.58242        1.36075
C          2.67369       -2.77007        3.71077
H          1.82519       -3.18651        0.40828
H          1.34282       -4.15915        1.78661
H          2.98617       -4.29841        1.16637
C          2.59532       -4.21966        4.17985
C          2.79971       -1.72309        4.66848
H          1.56525       -4.49844        4.46411
H          3.22613       -4.39680        5.05963
H          2.91579       -4.92354        3.40408
C          2.91624       -2.07872        6.14737
C          2.77132       -0.36419        4.23933
H          2.06603       -2.69207        6.48475
H          2.96142       -1.19864        6.79355
H          3.82750       -2.66753        6.34147
C          2.75996        0.75456        5.28008
H          2.58464        1.73794        4.83816
H          3.71511        0.80920        5.82850
H          1.96763        0.59676        6.02687
C          2.69243        1.40499        2.41268
H          2.77512        1.51290        1.33372
H          3.48079        2.01285        2.87803
H          1.72528        1.84743        2.69545
