97
/cluster/projects/nn2506k/marcof/RuC_BondLength/evolutionary_desing/RUN28052021044732/Gen016/M00000116_I_DFT.out	Energy: -1401493.4796785
Ru        -0.00941        0.51343        0.22986
C         -0.51418       -0.59842        1.57421
C          1.88234        0.09059       -0.14703
Cl        -1.31370       -0.52312       -1.52059
Cl         0.13607        2.56659        1.48117
H          0.02439       -1.42057        2.04493
H         -1.54605       -0.42457        1.94402
N          2.49347        0.49597       -1.33953
N          2.86113       -0.50852        0.64359
C          4.05409        0.42898       -1.27330
C          1.74728        0.80927       -2.56006
C          4.23972       -0.66994       -0.08974
C          4.55920        1.88519       -0.93385
C          4.70949       -0.04564       -2.61109
C          5.46061       -0.32556        0.82672
C          4.35209       -2.17125       -0.55510
C          5.94231       -1.31271        1.92692
H          6.30708       -0.19425        0.14014
H          5.29628        0.64887        1.29271
C          7.23448       -0.79565        2.61243
H          5.17841       -1.45998        2.69790
H          6.15226       -2.30435        1.50508
C          7.75862       -1.74477        3.71275
H          7.04650        0.19979        3.05241
H          8.02285       -0.65206        1.85204
H          8.67441       -1.34678        4.17713
H          7.99676       -2.73937        3.30300
H          7.01160       -1.88303        4.51056
C          5.66154       -2.74180       -1.18406
H          4.18585       -2.75692        0.35223
H          3.52032       -2.40741       -1.22134
C          5.71234       -4.28888       -1.07222
H          5.73521       -2.48136       -2.24712
H          6.55875       -2.32731       -0.70222
C          6.95578       -4.90410       -1.75127
H          4.80114       -4.71770       -1.52385
H          5.69286       -4.58486       -0.00975
H          6.95900       -6.00060       -1.64997
H          7.88801       -4.52487       -1.30199
H          6.98409       -4.66889       -2.82750
C          6.07316        2.26113       -0.93586
H          4.10358        2.51910       -1.69585
H          4.11997        2.20826        0.01464
C          6.26630        3.79464       -1.07891
H          6.56518        1.94813       -0.00666
H          6.61266        1.76364       -1.75525
C          7.74754        4.22762       -1.01424
H          5.70127        4.30856       -0.28211
H          5.82713        4.13613       -2.03118
H          7.84424        5.31932       -1.12115
H          8.33834        3.76025       -1.81885
H          8.20833        3.94481       -0.05386
C          4.78442        0.89848       -3.84329
H          5.74578       -0.29958       -2.35142
H          4.24045       -0.97937       -2.93088
C          5.58748        0.24397       -4.99774
H          3.78538        1.14792       -4.21636
H          5.26665        1.85048       -3.58557
C          5.69119        1.14376       -6.24907
H          5.11480       -0.71378       -5.27939
H          6.60446       -0.00546       -4.64509
H          6.26680        0.64941       -7.04732
H          6.19243        2.09673       -6.01600
H          4.69443        1.38191       -6.65292
C          1.40464        2.14485       -2.96945
C          1.36082       -0.27390       -3.41951
C          1.65725        3.44185       -2.22482
C          0.77692        2.37470       -4.21930
F          1.97796        3.35141       -0.87377
F          0.53723        4.31068       -2.29678
F          2.72959        4.19098       -2.83632
C          0.46197        1.31280       -5.07552
H          0.52507        3.39267       -4.50906
C          0.74113        0.00425       -4.66071
H         -0.01983        1.50521       -6.03421
H          0.45345       -0.83450       -5.29591
C          1.54238       -1.74232       -3.07939
H          2.45403       -2.15532       -3.53880
H          0.69295       -2.31359       -3.47368
H          1.57320       -1.92287       -2.00766
C          2.66694       -0.90205        2.03142
C          2.31254       -2.24211        2.42120
C          2.88122        0.06417        3.06836
C          1.86656       -3.38049        1.51918
C          2.28742       -2.61048        3.78946
F          1.52379       -3.05534        0.20297
F          0.70950       -4.02438        2.05115
F          2.84110       -4.42650        1.43673
C          2.54791       -1.66701        4.79315
H          2.02952       -3.63153        4.06418
C          2.80963       -0.34029        4.42494
H          2.51892       -1.96079        5.84249
H          2.97185        0.41239        5.19814
C          3.19970        1.52808        2.82629
H          2.53783        2.15506        3.43717
H          3.04998        1.83633        1.79495
H          4.23578        1.75401        3.12490
