67
/cluster/projects/nn2506k/marcof/RuC_BondLength/evolutionary_desing/RUN28052021044732/Gen001/M00000038_I_DFT.out	Energy: -1030479.5176964
Ru        -0.06031        0.07246       -0.04416
C         -0.35528       -0.58129        1.62863
C          1.82931       -0.09910       -0.25769
Cl        -0.88946       -1.79331       -1.30051
Cl        -0.33994        2.40185        0.44830
H          0.37112       -0.96694        2.34603
H         -1.41941       -0.57499        1.94253
N          2.47640        0.32768       -1.45175
N          2.84298       -0.61707        0.58327
C          3.88707        0.09427       -1.43195
C          1.81944        0.95530       -2.60798
C          4.14366       -0.54607       -0.02164
F          4.66380        1.27508       -1.61746
F          4.33921       -0.76336       -2.47934
F          5.07066        0.22575        0.73943
F          4.77674       -1.81783       -0.13205
C          1.73550        2.37783       -2.65604
C          1.37151        0.12542       -3.67746
C          2.34607        3.26597       -1.58327
C          1.07064        2.97422       -3.76598
H          2.65313        2.70792       -0.69837
H          1.63566        4.03062       -1.24958
H          3.24049        3.77763       -1.97292
C          0.96525        4.49329       -3.85187
C          0.50687        2.15671       -4.78866
H          0.93116        4.84324       -4.89020
H          1.81902        4.98751       -3.37518
H          0.05595        4.86385       -3.34734
C         -0.31562        2.79600       -5.90363
C          0.70995        0.74577       -4.77671
H          0.31423        3.09836       -6.75843
H         -0.84065        3.69228       -5.55330
H         -1.07761        2.10846       -6.28798
C          0.22121       -0.10874       -5.94188
H          0.83488       -1.00625       -6.07436
H          0.24787        0.44073       -6.89047
H         -0.81737       -0.44886       -5.78584
C          1.59942       -1.37799       -3.69067
H          1.93941       -1.76077       -2.72836
H          2.36591       -1.64218       -4.43657
H          0.67970       -1.91765       -3.94303
C          2.73344       -1.18400        1.92771
C          2.55264       -2.59022        2.06028
C          2.88747       -0.31562        3.04601
C          2.34366       -3.48714        0.84834
C          2.53833       -3.14441        3.37369
H          2.18381       -2.91923       -0.06916
H          1.46406       -4.13171        0.98325
H          3.21368       -4.14023        0.68129
C          2.38771       -4.65019        3.56551
C          2.67358       -2.29464        4.51143
H          3.05404       -5.02189        4.35530
H          2.62603       -5.20829        2.65539
H          1.35813       -4.92386        3.85405
C          2.60482       -2.89174        5.91324
C          2.87043       -0.89091        4.35016
H          1.96845       -3.78330        5.94690
H          2.20151       -2.17904        6.64159
H          3.60460       -3.19241        6.27230
C          3.07213       -0.00781        5.57751
H          3.72340       -0.49279        6.31684
H          2.11620        0.21342        6.08294
H          3.53245        0.95181        5.32485
C          3.02964        1.19047        2.87555
H          2.32613        1.72800        3.52643
H          2.83038        1.51619        1.85359
H          4.04553        1.52673        3.13294
