91
/cluster/projects/nn2506k/marcof/RuC_BondLength/evolutionary_desing/RUN28052021044948/Gen001/M00000041_I_DFT.out	Energy: -1166849.0245087
Ru        -0.48686        0.62430        0.08511
C         -0.57030        1.21998        1.79994
C          1.41541        0.55787       -0.29996
Cl        -1.00479       -1.70454        0.44041
Cl        -0.93303        2.68238       -1.09031
H          0.24824        1.45378        2.48604
H         -1.59872        1.36879        2.19284
N          2.49920        1.11108        0.36790
N          1.89594       -0.01065       -1.49917
C          3.79032        0.86789       -0.33879
C          2.57516        1.85587        1.61643
C          3.36262        0.29024       -1.71782
H          4.40581        0.16144        0.23576
H          4.34438        1.80766       -0.44373
C          3.71197        1.21627       -2.88647
H          3.87836       -0.66046       -1.89005
C          3.05146        2.44805       -3.11262
C          4.80850        0.87106       -3.71448
C          3.49420        3.31995       -4.12721
H          2.17185        2.71032       -2.52915
C          4.59876        2.97614       -4.93768
H          2.96775        4.26171       -4.29216
C          5.25145        1.74173       -4.73346
H          4.93844        3.65451       -5.72241
H          6.09685        1.45697       -5.36251
H          5.32222       -0.08164       -3.56467
C          2.45243        3.28019        1.59913
C          2.91530        1.18244        2.83079
C          2.20263        4.06577        0.32575
C          2.58990        3.98753        2.81610
H          3.03229        3.95112       -0.38750
H          2.10933        5.13672        0.54813
H          1.28553        3.74679       -0.18061
C          2.88098        3.34718        4.04033
H          2.47010        5.07221        2.79941
C          3.04939        4.14144        5.32899
C          3.05342        1.94678        4.01686
C          4.51068        4.62295        5.57239
H          2.73560        3.52788        6.18903
H          2.38880        5.02351        5.31212
C          4.66753        5.42718        6.88123
H          4.83488        5.24041        4.71810
H          5.18047        3.74707        5.59468
H          4.38367        4.82424        7.75861
H          5.71051        5.75162        7.02150
H          4.03443        6.32891        6.87591
H          3.29163        1.42011        4.94169
C          3.17742       -0.29640        2.97120
C          4.50429       -0.73655        3.22634
C          2.13428       -1.25558        3.00077
C          4.78121       -2.09262        3.49950
H          5.31931       -0.01024        3.22191
C          3.73087       -3.03566        3.53698
H          5.80873       -2.40730        3.69241
C          2.40933       -2.61005        3.28543
H          3.93940       -4.08346        3.76086
H          1.58678       -3.32654        3.30660
H          1.10709       -0.95676        2.80817
C          1.34781       -1.19339       -2.18621
C          1.79813       -2.47965       -1.73656
C          0.44701       -1.11850       -3.29359
C          2.73758       -2.67546       -0.55755
C          1.34599       -3.64390       -2.39256
H          2.54146       -3.64274       -0.07822
H          2.62099       -1.91033        0.21043
H          3.79457       -2.68766       -0.87436
C          0.45108       -3.60000       -3.48006
H          1.68609       -4.61249       -2.02057
C         -0.01126       -4.86850       -4.18394
C          0.01544       -2.32903       -3.89869
C          0.91900       -5.30108       -5.35559
H         -1.02932       -4.72400       -4.58021
H         -0.06956       -5.69638       -3.45836
C          0.43786       -6.58740       -6.06186
H          1.94107       -5.45193       -4.96924
H          0.98225       -4.47909       -6.08800
H         -0.56897       -6.45601       -6.48965
H          1.11702       -6.86416       -6.88362
H          0.39521       -7.43720       -5.36165
H         -0.68100       -2.25405       -4.73426
C         -0.14250        0.11107       -3.93876
C          0.59495        0.88442       -4.86799
C         -1.52880        0.37510       -3.79518
C         -0.02946        1.90739       -5.61251
H          1.64938        0.67098       -5.03058
C         -1.40631        2.16978       -5.44999
H          0.55916        2.48836       -6.32534
C         -2.15380        1.39733       -4.53633
H         -1.88899        2.96015       -6.02806
H         -3.21815        1.59257       -4.39455
H         -2.11896       -0.22213       -3.09859
