112
/cluster/projects/nn2506k/marcof/RuC_BondLength/evolutionary_desing/RUN28052021044732/Gen027/M00000178_I_DFT.out	Energy: -1232207.2681445
Ru        -0.19845       -0.06161       -0.12722
C         -0.60681       -0.70758        1.52035
C          1.73358       -0.34175       -0.34868
Cl        -1.13570       -1.87992       -1.42311
Cl        -0.24045        2.29012        0.46369
H          0.04263       -1.16730        2.26726
H         -1.67944       -0.60279        1.79364
N          2.39658        0.19133       -1.45448
N          2.67823       -0.98897        0.44015
C          3.88376        0.16380       -1.23799
C          1.76963        0.94428       -2.54144
C          4.08946       -1.04234       -0.22944
C          4.73788        0.25135       -2.50103
H          4.13700        1.06472       -0.65785
C          5.27199       -0.66635        0.72565
C          4.28916       -2.44884       -0.88591
C          5.76502       -1.66055        1.81029
H          5.03891        0.28944        1.21288
H          6.12425       -0.46109        0.05713
C          7.08902       -1.18217        2.45950
H          5.00893       -1.77856        2.59375
H          5.92496       -2.65967        1.38225
C          7.60118       -2.12667        3.57348
H          7.86725       -1.08493        1.68072
H          6.94636       -0.17064        2.88098
C          8.92367       -1.65695        4.22661
H          7.74419       -3.13925        3.15540
H          6.82544       -2.22221        4.35403
C          9.43174       -2.60238        5.33805
H          8.78238       -0.64526        4.64651
H          9.70052       -1.56181        3.44731
H          8.69551       -2.69215        6.15299
H          9.62035       -3.61463        4.94562
H         10.37245       -2.23320        5.77654
C          5.67954       -2.82462       -1.46880
H          3.54098       -2.56628       -1.67919
H          4.05401       -3.19047       -0.11457
C          5.64619       -4.21936       -2.14482
H          6.01297       -2.08912       -2.20865
H          6.44225       -2.84134       -0.67676
C          7.01624       -4.65890       -2.71506
H          5.29913       -4.97320       -1.41506
H          4.89992       -4.20857       -2.95812
C          6.98646       -6.04791       -3.39787
H          7.76436       -4.67240       -1.90184
H          7.36571       -3.90545       -3.44371
C          8.35386       -6.48352       -3.97040
H          6.23855       -6.03689       -4.21023
H          6.63974       -6.80307       -2.67043
H          9.11797       -6.54236       -3.17851
H          8.28923       -7.47468       -4.44686
H          8.71412       -5.77050       -4.72953
C          5.80372        1.18621       -2.53950
N          4.45181       -0.54975       -3.56966
C          6.60035        1.28836       -3.69760
H          6.00262        1.82854       -1.68153
C          6.30169        0.46582       -4.80314
H          7.42544        2.00085       -3.73890
C          5.21712       -0.43047       -4.68729
H          6.88112        0.51762       -5.72520
H          4.94473       -1.08256       -5.52013
C          1.82346        2.37119       -2.52147
C          1.18612        0.23966       -3.63870
C          2.50765        3.13476       -1.39640
C          1.21728        3.10055       -3.58224
H          2.59761        2.53348       -0.49103
H          1.92908        4.02026       -1.11253
H          3.51241        3.47756       -1.69882
C          1.30209        4.62415       -3.59336
C          0.51735        2.41299       -4.61487
H          2.26147        4.97920       -3.19645
H          0.50906        5.07919       -2.97446
H          1.20327        5.03304       -4.60529
C         -0.25025        3.20642       -5.66923
C          0.53406        0.98967       -4.66314
H          0.40688        3.54690       -6.48890
H         -0.71864        4.09959       -5.23639
H         -1.05151        2.61314       -6.12205
C         -0.14466        0.26902       -5.82520
H          0.17049       -0.77433       -5.90813
H          0.07295        0.75359       -6.78761
H         -1.24148        0.26235       -5.70323
C          1.27599       -1.27189       -3.76254
H          1.85858       -1.54342       -4.65542
H          0.28404       -1.73072       -3.84093
H          1.77631       -1.71701       -2.90536
C          2.42249       -1.56083        1.75567
C          2.02921       -2.92811        1.88095
C          2.57192       -0.72796        2.90930
C          1.62197       -3.76193        0.67335
C          1.91503       -3.49421        3.18511
H          1.57332       -3.16721       -0.23733
H          0.61877       -4.18398        0.82738
H          2.30353       -4.60823        0.49603
C          1.54105       -4.96390        3.34991
C          2.12095       -2.69019        4.34321
H          2.09933       -5.43255        4.17124
H          1.74173       -5.54741        2.44620
H          0.46806       -5.08513        3.58031
C          1.96990       -3.32384        5.72292
C          2.42950       -1.30457        4.20676
H          1.07352       -3.95741        5.77767
H          1.88985       -2.58113        6.52150
H          2.83144       -3.97039        5.96345
C          2.60848       -0.44512        5.45672
H          3.33701       -0.89212        6.14999
H          1.66162       -0.33516        6.01090
H          2.96130        0.56296        5.22618
C          2.81676        0.76994        2.77725
H          3.77802        1.07326        3.22058
H          2.02742        1.33779        3.29038
H          2.80370        1.09472        1.73746
