67
/cluster/projects/nn2506k/marcof/RuC_BondLength/evolutionary_desing/RUN28052021044948/Gen027/M00000175_I_DFT.out	Energy: -781418.9217074
Ru        -0.14945        0.38598        0.28197
C         -0.35633       -0.42955        1.89171
C          1.74931        0.16783       -0.10655
Cl        -1.07051       -1.33965       -1.13437
Cl        -0.14447        2.68784        1.01348
H          0.39393       -0.93498        2.50460
H         -1.39229       -0.40521        2.29343
N          2.31222        0.65351       -1.28687
N          2.77680       -0.42340        0.61751
C          3.77697        0.40094       -1.38799
C          1.64548        1.34609       -2.38164
C          4.09714       -0.34947       -0.07755
H          4.32162        1.35216       -1.47383
H          3.99852       -0.19786       -2.28289
H          4.48610       -1.36281       -0.25442
H          4.82274        0.18723        0.55070
C          1.61198        2.77182       -2.38125
C          1.16250        0.58625       -3.48764
C          2.31600        3.57926       -1.30009
C          0.93094        3.43780       -3.44065
H          2.70079        2.94430       -0.49987
H          1.63752        4.29840       -0.82617
H          3.16079        4.14530       -1.72784
C          0.84578        4.96094       -3.45600
C          0.31725        2.68212       -4.48184
H          0.91072        5.36334       -4.47549
H          1.64765        5.42535       -2.87323
H         -0.10794        5.31221       -3.02511
C         -0.51206        3.39203       -5.54800
C          0.48640        1.26795       -4.53980
H         -1.31121        2.74777       -5.93295
H          0.10323        3.70025       -6.41176
H         -0.99034        4.29552       -5.15215
C         -0.07092        0.48380       -5.72375
H          0.44444       -0.47165       -5.86528
H          0.02001        1.04367       -6.66377
H         -1.14097        0.25265       -5.58177
C          1.38783       -0.91653       -3.57324
H          1.81381       -1.31928       -2.65236
H          2.07095       -1.15987       -4.40468
H          0.44874       -1.45622       -3.74302
C          2.76458       -1.08650        1.90719
C          2.58579       -2.49988        1.95196
C          3.04634       -0.32252        3.07681
C          2.29112       -3.28881        0.68281
C          2.66283       -3.15870        3.21363
H          3.10633       -3.99171        0.44549
H          2.14539       -2.63429       -0.17853
H          1.37085       -3.88153        0.78629
C          2.48617       -4.67173        3.30307
C          2.90318       -2.40422        4.40012
H          2.57100       -5.15848        2.32727
H          1.49704       -4.94031        3.71209
H          3.24007       -5.12723        3.96057
C          2.93576       -3.10825        5.75326
C          3.11855       -0.99584        4.33101
H          2.29838       -3.99964        5.76681
H          2.59219       -2.45331        6.56247
H          3.95747       -3.43624        6.01427
C          3.42292       -0.21549        5.60630
H          3.82690        0.77946        5.39835
H          4.15629       -0.74011        6.23478
H          2.51634       -0.07326        6.21932
C          3.24051        1.18575        2.99485
H          3.04277        1.56760        1.99164
H          4.26536        1.47669        3.27763
H          2.55374        1.71360        3.67194
