87
/cluster/projects/nn2506k/marcof/RuC_BondLength/evolutionary_desing/RUN28052021044948/Gen010/M00000087_I_DFT.out	Energy: -1071239.6050881
Ru        -0.20323        0.18223        0.03809
C         -0.57068       -0.89162        1.45585
C          1.73280        0.05198       -0.18997
Cl        -1.01535       -1.26343       -1.72038
Cl        -0.30048        2.31026        1.18701
H          0.11371       -1.49332        2.05777
H         -1.64481       -0.92634        1.73941
N          2.37933        0.74442       -1.21946
N          2.70622       -0.61201        0.54856
C          3.86992        0.48648       -1.24415
C          1.73604        1.29965       -2.41457
C          4.11032       -0.23681        0.11402
C          4.77426        1.69994       -1.48076
H          4.06225       -0.21004       -2.06939
C          5.13743       -1.37113        0.05892
H          4.48323        0.48711        0.84932
C          6.20042       -1.37131        0.99416
C          5.10558       -2.39845       -0.91634
C          7.20206       -2.36368        0.96270
H          6.24943       -0.58815        1.75313
C          7.15794       -3.38030       -0.01399
H          8.01213       -2.34066        1.69366
C          6.10326       -3.39249       -0.95291
H          7.93198       -4.14910       -0.04510
H          6.05861       -4.17477       -1.71291
H          4.29971       -2.43902       -1.64792
C          4.98738        2.70912       -0.50939
C          5.46727        1.79982       -2.71126
C          5.86633        3.78089       -0.76083
H          4.45933        2.67894        0.44358
C          6.55229        3.86738       -1.99223
H          6.01287        4.54922        0.00050
C          6.34731        2.87134       -2.96964
H          7.23407        4.69743       -2.18554
H          6.87014        2.92588       -3.92604
H          5.32011        1.03398       -3.47526
C          1.40460        2.68588       -2.46298
C          1.54632        0.45255       -3.54872
C          1.71477        3.62287       -1.30819
C          0.78096        3.20254       -3.63822
H          2.08805        3.08339       -0.44009
H          0.82079        4.16755       -0.98067
H          2.47398        4.36363       -1.60384
C          0.39888        4.67842       -3.71262
C          0.51461        2.34838       -4.74590
H          0.60753        5.10172       -4.70452
H          0.94355        5.28419       -2.98287
H         -0.67687        4.82566       -3.51365
C         -0.23998        2.88140       -5.96091
C          0.94700        0.99123       -4.72122
H         -0.86988        3.73996       -5.70525
H         -0.90012        2.11669       -6.38920
H          0.44642        3.20653       -6.76250
C          0.74713        0.10023       -5.94334
H          1.54398       -0.64721       -6.03881
H          0.73616        0.67760       -6.87500
H         -0.20689       -0.45244       -5.88558
C          1.95173       -1.01476       -3.53573
H          1.15024       -1.64441       -3.93818
H          2.14565       -1.37829       -2.52621
H          2.85131       -1.18947       -4.15136
C          2.56492       -1.33130        1.80703
C          2.33609       -2.73820        1.78106
C          2.74633       -0.62577        3.03282
C          2.05275       -3.46597        0.47477
C          2.31750       -3.45425        3.01445
H          1.96040       -2.77308       -0.36151
H          1.10711       -4.02451        0.53309
H          2.84672       -4.18814        0.23339
C          2.10218       -4.96538        3.01955
C          2.50371       -2.76348        4.24764
H          2.81277       -5.46870        3.69025
H          2.22960       -5.40613        2.02702
H          1.08798       -5.23151        3.36385
C          2.44267       -3.52394        5.56921
C          2.73505       -1.35704        4.25565
H          3.45044       -3.80855        5.91958
H          1.85705       -4.44569        5.48799
H          1.98494       -2.92038        6.36290
C          2.96528       -0.63533        5.58031
H          3.48939        0.31647        5.44691
H          3.56665       -1.24139        6.27059
H          2.01305       -0.41053        6.09173
C          2.90281        0.88942        3.05774
H          3.92923        1.19328        3.32450
H          2.23052        1.33870        3.80081
H          2.64259        1.34448        2.10098
