101
/cluster/projects/nn2506k/marcof/RuC_BondLength/evolutionary_desing/RUN28052021044948/Gen015/M00000117_I_DFT.out	Energy: -1076507.3103776
Ru         0.15640        0.55844        0.03572
C         -0.33257       -0.01228        1.68885
C          2.03739        0.05164       -0.15247
Cl        -0.89659       -1.18220       -1.26978
Cl         0.44174        2.90966        0.50998
H          0.25297       -0.54172        2.44316
H         -1.38823        0.21611        1.95262
N          2.72092        0.32001       -1.33438
N          2.93764       -0.55905        0.71647
C          4.12045       -0.16712       -1.31608
C          2.20202        0.92339       -2.55417
C          4.34548       -0.67671        0.13689
H          4.80611        0.64779       -1.57920
H          4.25013       -0.96889       -2.05748
C          4.96796       -2.10443        0.17306
C          5.43668        0.14831        0.88996
C          6.48089       -1.88066       -0.09710
H          4.50471       -2.78521       -0.55184
H          4.82744       -2.53237        1.17370
C          6.78435       -0.41321        0.36286
H          7.09150       -2.61692        0.44527
H          6.71203       -2.00394       -1.16591
H          7.15904        0.18480       -0.48136
H          7.55855       -0.37708        1.14281
H          5.35186       -0.04462        1.96621
H          5.33162        1.22945        0.73228
C          2.30922        2.33391       -2.75393
C          1.69462        0.07905       -3.58998
C          3.04153        3.27006       -1.79787
C          1.75633        2.88249       -3.93516
C          4.40323        3.77860       -2.35763
H          2.40318        4.14110       -1.58938
H          3.20608        2.78483       -0.83073
C          5.13274        4.73096       -1.37943
H          5.05859        2.92073       -2.58888
H          4.23780        4.30092       -3.31438
C          6.48185        5.25287       -1.92206
H          5.30162        4.21152       -0.41922
H          4.47515        5.58765       -1.15059
H          7.17905        4.42448       -2.12821
H          6.96764        5.92683       -1.19869
H          6.34420        5.81353       -2.86054
C          1.15686        2.08658       -4.93389
H          1.79923        3.96468       -4.07338
C          0.50143        2.71512       -6.15640
C          1.16887        0.68536       -4.75224
C         -1.00850        3.03182       -5.94243
H          1.02218        3.64983       -6.42246
H          0.59882        2.03972       -7.02247
C         -1.67766        3.66679       -7.18451
H         -1.53767        2.10228       -5.67347
H         -1.11630        3.70950       -5.07890
C         -3.17554        3.98241       -6.97493
H         -1.56611        2.98609       -8.04737
H         -1.14356        4.59591       -7.45247
H         -3.74613        3.06964       -6.74052
H         -3.61803        4.43205       -7.87813
H         -3.32130        4.68916       -6.14248
H          0.75468        0.04305       -5.53191
C          1.75991       -1.43846       -3.52710
H          2.70964       -1.79804       -3.96093
H          0.94473       -1.88593       -4.10945
H          1.67609       -1.82235       -2.50772
C          2.65499       -1.05179        2.05392
C          2.83295       -0.19112        3.18137
C          2.21118       -2.40326        2.23756
C          3.13896        1.29612        3.07095
C          2.64284       -0.72532        4.47806
H          2.36086        1.87539        3.58981
H          3.16205        1.65115        2.03989
H          4.09974        1.54274        3.54952
C          2.25760       -2.06484        4.69529
H          2.77757       -0.06271        5.33594
C          2.09437       -2.62155        6.10391
C          2.02536       -2.87172        3.55942
C          3.39960       -3.25181        6.67324
H          1.76570       -1.82038        6.78594
H          1.30241       -3.38829        6.11236
C          3.22619       -3.81814        8.10280
H          3.73758       -4.05621        5.99804
H          4.19825       -2.49058        6.67435
C          4.51856       -4.44341        8.67346
H          2.42470       -4.57796        8.09905
H          2.88393       -3.01171        8.77528
H          4.86922       -5.27847        8.04598
H          4.35521       -4.83468        9.69006
H          5.33131       -3.70141        8.72726
H          1.66966       -3.89130        3.70895
C          1.81894       -3.31109        1.06929
C          2.35976       -4.76592        1.11275
H          0.71674       -3.35454        1.03477
H          2.11498       -2.85078        0.12182
C          1.92951       -5.59169       -0.12453
H          3.46032       -4.75609        1.18057
H          1.99967       -5.28166        2.01750
C          2.43991       -7.04934       -0.09523
H          2.29399       -5.09636       -1.04188
H          0.82796       -5.59150       -0.19594
H          3.54073       -7.08860       -0.05904
H          2.11473       -7.60149       -0.99103
H          2.05742       -7.58901        0.78613
