85
/cluster/projects/nn2506k/marcof/RuC_BondLength/evolutionary_desing/RUN28052021121055/Gen015/M00000124_I_DFT.out	Energy: -1091360.0409411
Ru        -0.21168        0.13357        0.00707
C         -0.56982       -0.90553        1.45299
C          1.72659        0.03282       -0.19972
Cl        -0.96601       -1.38274       -1.71676
Cl        -0.37571        2.28661        1.10056
H          0.12295       -1.46113        2.08851
H         -1.64724       -0.96531        1.71927
N          2.37508        0.69882       -1.24726
N          2.70770       -0.58827        0.56882
C          3.85240        0.38446       -1.27872
C          1.72715        1.28300       -2.42397
C          4.09408       -0.13888        0.15840
C          4.78850        1.50995       -1.72148
H          4.01317       -0.41294       -2.01409
C          5.21418       -1.17080        0.28759
H          4.38921        0.68117        0.82433
C          5.34656       -2.30854       -0.54281
N          6.13168       -0.87535        1.26075
C          6.44625       -3.16950       -0.35951
H          4.61130       -2.52352       -1.31535
C          7.39025       -2.87431        0.64657
H          6.56535       -4.05035       -0.99197
C          7.18875       -1.71669        1.42736
H          8.25582       -3.51440        0.81903
H          7.89398       -1.44189        2.21429
C          5.11335        2.63675       -0.93021
N          5.34334        1.31142       -2.95816
C          6.02396        3.58848       -1.42958
H          4.66664        2.77828        0.05175
C          6.58984        3.39449       -2.70722
H          6.28628        4.46284       -0.83234
C          6.21810        2.24129       -3.43008
H          7.29805        4.10794       -3.12930
H          6.63185        2.04325       -4.42090
C          1.40929        2.67369       -2.43327
C          1.51955        0.46618       -3.57504
C          1.76198        3.58200       -1.26639
C          0.76493        3.22208       -3.58209
H          2.16659        3.02043       -0.42527
H          0.88187        4.11661       -0.88993
H          2.50838        4.33197       -1.57273
C          0.38430        4.70016       -3.61376
C          0.47659        2.39611       -4.70635
H          0.60959        5.15604       -4.58792
H          0.91442        5.28235       -2.85493
H         -0.69482        4.84041       -3.42934
C         -0.29486        2.96287       -5.89533
C          0.90740        1.03844       -4.72471
H          0.37938        3.28402       -6.70865
H         -0.89994        3.83091       -5.61377
H         -0.98116        2.21786       -6.31787
C          0.70420        0.18119       -5.97003
H          1.53976       -0.51367       -6.12178
H          0.62267        0.78716       -6.87908
H         -0.21301       -0.42860       -5.89484
C          1.94072       -0.99526       -3.60963
H          2.08830       -1.40338       -2.60861
H          2.87550       -1.12052       -4.18207
H          1.17172       -1.61633       -4.08181
C          2.56332       -1.33268        1.81044
C          2.34566       -2.74108        1.75346
C          2.72687       -0.64963        3.04964
C          2.10407       -3.44672        0.42605
C          2.30292       -3.47864        2.97391
H          2.09061       -2.74594       -0.40884
H          1.13145       -3.96036        0.42234
H          2.87538       -4.20547        0.22447
C          2.07299       -4.98798        2.95187
C          2.47971       -2.81017        4.22161
H          2.81849       -5.51643        3.56418
H          2.13064       -5.40466        1.94300
H          1.07994       -5.25284        3.35260
C          2.40870       -3.59134        5.53085
C          2.71392       -1.40471        4.25714
H          1.89235       -4.54935        5.41609
H          1.87452       -3.02766        6.30717
H          3.41600       -3.80986        5.92638
C          2.94803       -0.70210        5.59096
H          3.45133       -1.35682        6.31257
H          1.99947       -0.37622        6.05291
H          3.57313        0.19043        5.47592
C          2.88288        0.86361        3.10108
H          2.27504        1.29428        3.90734
H          2.54800        1.33922        2.17690
H          3.93015        1.15451        3.28639
