88
/cluster/projects/nn2506k/marcof/RuC_BondLength/evolutionary_desing/RUN28052021121055/Gen010/M00000100_I_DFT.out	Energy: -953957.6605646
Ru         0.11154        0.28667       -0.09562
C         -0.31242       -0.40525        1.52935
C          2.04040       -0.03251       -0.33527
Cl        -0.90326       -1.46778       -1.43297
Cl         0.14127        2.61321        0.60259
H          0.32818       -0.90226        2.26058
H         -1.38264       -0.28985        1.80775
N          2.66178        0.34721       -1.52406
N          3.00420       -0.54547        0.51625
C          4.17730        0.34937       -1.40422
C          1.90029        0.93537       -2.62607
C          4.41345       -0.61318       -0.15573
C          5.00249        0.06900       -2.71948
H          4.45720        1.36513       -1.09275
C          5.54595       -0.10276        0.80648
C          4.72622       -2.09837       -0.59680
C          5.85924        1.40804        0.92510
H          5.32521       -0.50117        1.80489
H          6.47827       -0.59597        0.50171
H          6.53719        1.56246        1.77974
H          4.97326        2.02746        1.09843
H          6.37526        1.79692        0.03748
C          5.37193       -3.07182        0.42295
H          3.80299       -2.54049       -0.98375
H          5.41012       -2.05743       -1.45048
H          5.40543       -4.07913       -0.02246
H          4.82169       -3.14307        1.36556
H          6.40908       -2.79536        0.65956
C          6.54040        0.06251       -2.45920
C          4.77962        1.11583       -3.84983
H          4.71299       -0.91443       -3.11640
H          6.87106       -0.63266       -1.68176
H          6.89517        1.06724       -2.18602
H          7.05631       -0.22084       -3.38883
H          3.77678        1.09057       -4.27768
H          5.49218        0.91571       -4.66490
H          4.97453        2.13736       -3.49033
C          1.73542        2.35044       -2.70761
C          1.38389        0.07021       -3.63797
C          2.44440        3.29601       -1.75059
C          0.92532        2.88928       -3.74863
H          2.81665        2.78362       -0.86332
H          1.77254        4.08194       -1.39129
H          3.29605        3.78697       -2.25265
C          0.74230        4.40058       -3.84799
C          0.28503        2.02192       -4.68027
H          0.47345        4.71893       -4.86123
H          1.65927        4.93769       -3.57535
H         -0.05067        4.75487       -3.16664
C         -0.69883        2.59094       -5.69915
C          0.56343        0.62360       -4.66247
H         -0.18976        2.95894       -6.60731
H         -1.26597        3.43163       -5.28079
H         -1.43023        1.84038       -6.01799
C         -0.03633       -0.28435       -5.73158
H         -0.06989        0.20521       -6.71376
H         -1.06886       -0.57364       -5.47032
H          0.53173       -1.21204       -5.85220
C          1.72627       -1.41159       -3.66168
H          2.29366       -1.70636       -2.77850
H          2.33073       -1.65623       -4.55140
H          0.82262       -2.03113       -3.68768
C          2.74470       -1.15641        1.81920
C          2.32483       -2.52291        1.90836
C          2.91215       -0.37099        3.00239
C          1.84861       -3.29987        0.68832
C          2.28191       -3.14845        3.19010
H          1.80216       -2.68113       -0.20550
H          0.82505       -3.66679        0.84943
H          2.47910       -4.17648        0.47833
C          1.88732       -4.61658        3.32716
C          2.61927       -2.41177        4.36257
H          1.43076       -5.01760        2.41889
H          1.16961       -4.76664        4.14657
H          2.76486       -5.24729        3.55146
C          2.65491       -3.11260        5.71645
C          2.86670       -1.01255        4.27630
H          3.33854       -2.61766        6.41570
H          2.98050       -4.15601        5.62626
H          1.65884       -3.12629        6.19299
C          3.08435       -0.21151        5.55719
H          4.07100       -0.42694        6.00216
H          2.33022       -0.45593        6.31930
H          3.03799        0.86763        5.39027
C          3.03999        1.14315        2.92898
H          3.98277        1.50874        3.36074
H          2.21970        1.61775        3.48738
H          2.96080        1.50413        1.90511
