77
/cluster/projects/nn2506k/marcof/RuC_BondLength/evolutionary_desing/RUN28052021121055/Gen010/M00000099_I_DFT.out	Energy: -926329.9022777
Ru        -0.20251       -0.16866       -0.20969
C         -0.53086       -0.99207        1.37557
C          1.74026       -0.23223       -0.39144
Cl        -0.80982       -1.94663       -1.72706
Cl        -0.49315        2.11752        0.51711
H          0.18195       -1.39970        2.09594
H         -1.60744       -1.06913        1.64081
N          2.38080        0.41372       -1.44680
N          2.72670       -0.85137        0.37288
C          3.85261        0.21632       -1.44249
C          1.78112        1.16219       -2.54487
C          4.13063       -0.49557       -0.09521
H          4.15832       -0.38586       -2.30806
H          4.37101        1.18221       -1.50809
C          5.13565       -1.64739       -0.17434
H          4.52984        0.23133        0.62719
C          6.20993       -1.68417        0.74719
C          5.06847       -2.65663       -1.16704
C          7.19064       -2.69658        0.68454
H          6.28165       -0.91792        1.52175
C          7.11215       -3.69453       -0.30919
H          8.01027       -2.70391        1.40512
C          6.04472       -3.67006       -1.23397
H          7.86971       -4.47828       -0.36391
H          5.97359       -4.43861       -2.00575
H          4.25026       -2.66609       -1.88731
C          1.69445        2.58192       -2.44043
C          1.42342        0.47797       -3.74398
C          2.26539        3.32260       -1.24002
C          1.08322        3.30806       -3.50214
H          2.60579        2.63630       -0.46252
H          1.51569        3.97399       -0.77526
H          3.11911        3.95288       -1.54150
C          0.94168        4.82407       -3.40841
C          0.58820        2.61869       -4.64748
H          1.07696        5.30817       -4.38453
H          1.67325        5.26576       -2.72427
H         -0.05775        5.10916       -3.03635
C         -0.17473        3.38488       -5.72422
C          0.81456        1.21968       -4.79720
H         -0.71803        4.23886       -5.30318
H         -0.91436        2.74881       -6.22452
H          0.49860        3.77951       -6.50558
C          0.39581        0.51404       -6.08345
H          0.97741       -0.39634       -6.26201
H          0.52453        1.15773       -6.96310
H         -0.66609        0.21421       -6.04846
C          1.71737       -1.00367       -3.92952
H          0.82635       -1.55631       -4.24900
H          2.05415       -1.47352       -3.00425
H          2.49671       -1.14949       -4.69693
C          2.60046       -1.49550        1.67138
C          2.39285       -2.90337        1.73837
C          2.77309       -0.70622        2.84773
C          2.12677       -3.71898        0.48199
C          2.38639       -3.53558        3.01728
H          2.03025       -3.08446       -0.39876
H          1.18729       -4.28319        0.57160
H          2.93194       -4.44488        0.29395
C          2.19024       -5.04542        3.12382
C          2.56763       -2.76236        4.20111
H          2.91427       -5.49606        3.81744
H          2.31074       -5.54806        2.16038
H          1.18318       -5.29919        3.49697
C          2.52533       -3.43611        5.56962
C          2.77791       -1.35462        4.11626
H          1.94144       -4.36254        5.55466
H          2.07653       -2.78437        6.32942
H          3.53836       -3.69619        5.92404
C          3.00150       -0.54469        5.39030
H          3.48956        0.41462        5.19093
H          3.63424       -1.08672        6.10575
H          2.05001       -0.32247        5.90418
C          2.89727        0.81096        2.76939
H          2.20885        1.29600        3.47512
H          2.64121        1.19372        1.77993
H          3.91367        1.15690        3.02187
