83
/cluster/projects/nn2506k/marcof/RuC_BondLength/evolutionary_desing/RUN28052021044948/Gen001/M00000038_I_DFT.out	Energy: -928584.9768065
Ru         0.15494        0.51771        0.20731
C         -0.27431       -0.11100        1.85606
C          2.03767        0.05147       -0.05360
Cl        -0.89992       -1.20860       -1.11562
Cl         0.39857        2.85954        0.74839
H          0.34320       -0.64784        2.57898
H         -1.32697        0.08598        2.15474
N          2.68258        0.36727       -1.24710
N          2.97101       -0.57662        0.76654
C          4.07430       -0.14103       -1.29831
C          2.11362        1.00981       -2.42457
C          4.36351       -0.64714        0.14351
H          4.75825        0.66016       -1.59989
H          4.15350       -0.95023       -2.03918
C          5.03541       -2.05174        0.15334
C          5.44790        0.21323        0.86717
C          6.52900       -1.77317       -0.16735
H          4.57249       -2.74663       -0.55808
H          4.94451       -2.48731        1.15659
C          6.79934       -0.30258        0.30314
H          7.18375       -2.49576        0.34079
H          6.72382       -1.87339       -1.24582
H          7.13891        0.31590       -0.54106
H          7.58862       -0.25328        1.06709
H          5.39879        0.01674        1.94480
H          5.30262        1.29032        0.71409
C          2.18050        2.43201       -2.56804
C          1.57533        0.19793       -3.46990
C          2.93983        3.33399       -1.59925
C          1.54397        3.01426       -3.69014
C          4.37896        3.74708       -2.05361
H          2.35597        4.24990       -1.42631
H          3.01668        2.84586       -0.62334
C          4.47057        4.80207       -3.18264
H          4.89251        4.15376       -1.16377
H          4.94937        2.85307       -2.35839
C          5.92384        5.23536       -3.48204
H          3.87945        5.68978       -2.89654
H          4.01747        4.40629       -4.10452
H          6.40195        5.67668       -2.59257
H          5.95596        5.98724       -4.28648
H          6.53882        4.37846       -3.80213
C          0.91778        2.24416       -4.69367
H          1.53479        4.10132       -3.77412
C          0.19082        2.90611       -5.85220
C          0.98026        0.83819       -4.58035
H         -0.86725        3.08528       -5.59621
H          0.20488        2.27759       -6.75434
H          0.63271        3.88007       -6.10774
H          0.54317        0.21837       -5.36538
C          1.67075       -1.31947       -3.47404
H          2.61067       -1.64171       -3.95569
H          0.84344       -1.75802       -4.04580
H          1.62980       -1.74728       -2.46955
C          2.73684       -1.11544        2.09535
C          2.92963       -0.28804        3.24406
C          2.32827       -2.48222        2.24786
C          3.19735        1.20908        3.17590
C          2.79027       -0.86785        4.52874
H          2.40701        1.75279        3.71455
H          3.20647        1.59514        2.15598
H          4.15363        1.46568        3.65807
C          2.44058       -2.22132        4.71200
H          2.93941       -0.23087        5.40308
C          2.32287       -2.82639        6.10131
C          2.19123       -2.99730        3.55777
H          2.20747       -2.05294        6.87322
H          3.22263       -3.41246        6.35440
H          1.46277       -3.50862        6.17383
H          1.86475       -4.02972        3.68382
C          1.92523       -3.36193        1.06194
C          2.50448       -4.80246        1.04258
H          0.82395       -3.43339        1.05734
H          2.18162       -2.86330        0.12226
C          2.06502       -5.59729       -0.21161
H          3.60570       -4.76547        1.08436
H          2.18059       -5.35765        1.93761
C          2.61406       -7.04074       -0.24486
H          2.39331       -5.06156       -1.11992
H          0.96240       -5.62445       -0.25638
H          3.71610       -7.05136       -0.23682
H          2.28098       -7.57100       -1.15091
H          2.26829       -7.61991        0.62651
