67
/cluster/projects/nn2506k/marcof/RuC_BondLength/evolutionary_desing/RUN28052021044732/Gen034/M00000213_I_DFT.out	Energy: -781418.9085737
Ru        -0.18182       -0.00047       -0.06941
C         -0.51009       -0.86248        1.49530
C          1.75529       -0.11791       -0.26377
Cl        -0.86645       -1.73142       -1.60734
Cl        -0.36799        2.28117        0.69982
H          0.19865       -1.34554        2.17224
H         -1.58133       -0.89717        1.78920
N          2.41190        0.42479       -1.36842
N          2.73114       -0.67807        0.55092
C          3.88993        0.24361       -1.32240
C          1.82883        1.11246       -2.51298
C          4.11110       -0.51967        0.00088
H          4.23064       -0.32427       -2.19992
H          4.39314        1.22102       -1.33543
H          4.73699        0.03895        0.71183
H          4.57048       -1.50714       -0.15175
C          1.72559        2.53469       -2.48745
C          1.50185        0.35878       -3.67875
C          2.27103        3.34616       -1.32101
C          1.12881        3.19476       -3.60003
H          2.59891        2.70926       -0.49736
H          1.51189        4.02073       -0.90783
H          3.12788        3.96139       -1.64403
C          0.97191        4.71227       -3.59521
C          0.66624        2.43775       -4.71564
H          1.13752        5.14277       -4.59173
H          1.67518        5.19842       -2.91177
H         -0.04225        5.00816       -3.27512
C         -0.07703        3.13524       -5.85119
C          0.90778        1.03459       -4.78295
H          0.61178        3.48899       -6.63865
H         -0.63492        4.00823       -5.49294
H         -0.80079        2.46593       -6.33092
C          0.51539        0.25596       -6.03474
H          1.08092       -0.67582       -6.13614
H          0.68560        0.83993       -6.94883
H         -0.55363       -0.01866       -6.01550
C          1.80722       -1.12953       -3.76989
H          2.15599       -1.53479       -2.81815
H          2.58261       -1.32073       -4.53099
H          0.91750       -1.70756       -4.04618
C          2.61937       -1.37828        1.81590
C          2.50393       -2.79896        1.80777
C          2.74447       -0.63677        3.02650
C          2.37895       -3.56353        0.49632
C          2.48156       -3.48983        3.05448
H          2.30245       -2.89219       -0.36098
H          1.47614       -4.19113        0.48510
H          3.24145       -4.23018        0.33371
C          2.36450       -5.01091        3.08876
C          2.56594       -2.76013        4.27727
H          2.56354       -5.46538        2.11406
H          1.35359       -5.33199        3.39324
H          3.07140       -5.45358        3.80474
C          2.49365       -3.49981        5.60971
C          2.72233       -1.34237        4.26465
H          1.90818       -4.42307        5.53509
H          2.03103       -2.88644        6.39191
H          3.49842       -3.78123        5.97138
C          2.86108       -0.58664        5.58278
H          3.54352       -1.10188        6.27315
H          1.89024       -0.49290        6.09923
H          3.24702        0.42714        5.44185
C          2.87202        0.88066        3.00207
H          2.10213        1.35538        3.62703
H          2.74761        1.28357        1.99527
H          3.85169        1.20978        3.38552
