80
/cluster/projects/nn2506k/marcof/RuC_BondLength/evolutionary_desing/RUN28052021044732/Gen034/M00000210_I_DFT.out	Energy: -933396.2282757
Ru        -0.08075       -0.19703       -0.13155
C         -0.38229       -0.81561        1.54963
C          1.86364       -0.26921       -0.34704
Cl        -0.74593       -2.16972       -1.36494
Cl        -0.43418        2.14892        0.34248
H          0.33840       -1.13462        2.30540
H         -1.45467       -0.85328        1.83903
N          2.47866        0.25374       -1.49238
N          2.86591       -0.78050        0.47083
C          3.97554        0.36525       -1.28292
C          1.79906        0.94006       -2.59148
C          4.24717       -0.75753       -0.21325
C          4.84005        0.38678       -2.52009
H          4.14856        1.31956       -0.76135
C          5.39136       -0.33140        0.73513
C          4.59357       -2.14628       -0.80562
H          5.52705       -1.05822        1.54535
H          5.21987        0.65427        1.17946
H          6.32761       -0.28676        0.16163
H          3.81976       -2.51513       -1.48664
H          4.71681       -2.87377        0.00377
H          5.54276       -2.09061       -1.35212
C          4.97424       -0.47510       -3.59744
S          5.99771        1.78292       -2.70692
C          5.96142       -0.07662       -4.56478
H          4.38222       -1.37597       -3.71063
C          6.60800        1.10226       -4.24273
H          6.17950       -0.64687       -5.46597
H          7.38874        1.62697       -4.78263
C          1.71484        2.36470       -2.58033
C          1.30837        0.17830       -3.69522
C          2.29571        3.19710       -1.44690
C          1.06953        3.02645       -3.66225
H          2.43868        2.61074       -0.53845
H          1.61998        4.01443       -1.17331
H          3.26109        3.64540       -1.73639
C          1.00703        4.55058       -3.67850
C          0.47066        2.27095       -4.71070
H          0.87701        4.94662       -4.69160
H          1.92466        4.99665       -3.27479
H          0.16910        4.92715       -3.06622
C         -0.32705        2.98650       -5.79752
C          0.61863        0.85448       -4.74512
H         -0.92360        3.80797       -5.37961
H         -1.02287        2.31301       -6.30772
H          0.33112        3.42194       -6.56967
C          0.03835        0.06655       -5.91705
H          0.40735       -0.96153       -5.95510
H          0.28182        0.53564       -6.88132
H         -1.06145        0.00809       -5.85174
C          1.52757       -1.32342       -3.79106
H          0.57844       -1.86612       -3.86513
H          2.03948       -1.71372       -2.91142
H          2.12633       -1.57017       -4.68215
C          2.73325       -1.31032        1.82174
C          2.51753       -2.70729        2.02626
C          2.87025       -0.41357        2.92735
C          2.15665       -3.63906        0.87711
C          2.54628       -3.22020        3.35653
H          2.93834       -4.38986        0.68343
H          1.96949       -3.09490       -0.04736
H          1.23379       -4.18910        1.10937
C          2.36150       -4.71434        3.60313
C          2.72654       -2.34337        4.46514
H          3.01851       -5.07466        4.40580
H          2.57946       -5.31217        2.71281
H          1.32596       -4.95037        3.90471
C          2.72591       -2.92026        5.87755
C          2.87586       -0.94136        4.25313
H          2.56692       -2.15568        6.64335
H          3.68351       -3.41863        6.10799
H          1.93691       -3.67417        6.00357
C          3.04275       -0.01061        5.45241
H          2.11838        0.04795        6.05101
H          3.29762        1.01069        5.15896
H          3.83979       -0.36227        6.12424
C          2.93861        1.09426        2.71793
H          3.88684        1.51997        3.08090
H          2.12684        1.59809        3.26263
H          2.82462        1.36645        1.66891
