85
/cluster/projects/nn2506k/marcof/RuC_BondLength/evolutionary_desing/RUN28052021044948/Gen011/M00000094_I_DFT.out	Energy: -1091360.0409411
Ru        -0.21168        0.13357        0.00707
C         -0.56982       -0.90554        1.45299
C          1.72660        0.03282       -0.19972
Cl        -0.96601       -1.38274       -1.71676
Cl        -0.37571        2.28660        1.10058
H          0.12296       -1.46114        2.08851
H         -1.64724       -0.96532        1.71927
N          2.37508        0.69883       -1.24726
N          2.70771       -0.58827        0.56882
C          3.85240        0.38446       -1.27872
C          1.72715        1.28300       -2.42396
C          4.09408       -0.13888        0.15840
C          4.78849        1.50996       -1.72147
H          4.01317       -0.41293       -2.01410
C          5.21418       -1.17080        0.28758
H          4.38921        0.68116        0.82434
C          5.34655       -2.30855       -0.54282
N          6.13168       -0.87536        1.26074
C          6.44624       -3.16951       -0.35952
H          4.61129       -2.52352       -1.31536
C          7.39024       -2.87432        0.64655
H          6.56534       -4.05035       -0.99199
C          7.18875       -1.71670        1.42735
H          8.25582       -3.51442        0.81901
H          7.89399       -1.44191        2.21427
C          5.11334        2.63675       -0.93020
N          5.34334        1.31143       -2.95816
C          6.02395        3.58850       -1.42957
H          4.66663        2.77828        0.05176
C          6.58984        3.39450       -2.70720
H          6.28627        4.46285       -0.83232
C          6.21810        2.24131       -3.43007
H          7.29804        4.10796       -3.12928
H          6.63185        2.04327       -4.42088
C          1.40929        2.67369       -2.43327
C          1.51955        0.46618       -3.57504
C          1.76197        3.58200       -1.26639
C          0.76493        3.22208       -3.58209
H          2.16659        3.02043       -0.42527
H          0.88185        4.11659       -0.88992
H          2.50836        4.33198       -1.57273
C          0.38429        4.70016       -3.61376
C          0.47659        2.39611       -4.70635
H          0.60965        5.15605       -4.58790
H          0.91435        5.28234       -2.85489
H         -0.69485        4.84040       -3.42942
C         -0.29484        2.96287       -5.89534
C          0.90740        1.03844       -4.72471
H          0.37941        3.28394       -6.70869
H         -0.89987        3.83095       -5.61381
H         -0.98120        2.21787       -6.31784
C          0.70420        0.18118       -5.97002
H          1.53977       -0.51366       -6.12179
H          0.62265        0.78715       -6.87907
H         -0.21300       -0.42862       -5.89482
C          1.94072       -0.99526       -3.60963
H          2.08831       -1.40338       -2.60860
H          2.87550       -1.12052       -4.18207
H          1.17172       -1.61633       -4.08181
C          2.56332       -1.33269        1.81044
C          2.34566       -2.74109        1.75346
C          2.72688       -0.64964        3.04964
C          2.10406       -3.44672        0.42605
C          2.30292       -3.47864        2.97391
H          2.09062       -2.74594       -0.40884
H          1.13144       -3.96034        0.42234
H          2.87537       -4.20547        0.22448
C          2.07299       -4.98798        2.95187
C          2.47971       -2.81017        4.22162
H          2.81852       -5.51644        3.56413
H          2.13058       -5.40465        1.94299
H          1.07995       -5.25285        3.35265
C          2.40870       -3.59134        5.53086
C          2.71392       -1.40472        4.25714
H          1.89249       -4.54942        5.41607
H          1.87439       -3.02771        6.30713
H          3.41600       -3.80972        5.92647
C          2.94803       -0.70208        5.59095
H          3.45110       -1.35686        6.31266
H          1.99949       -0.37596        6.05276
H          3.57333        0.19031        5.47592
C          2.88290        0.86360        3.10109
H          2.27509        1.29427        3.90737
H          2.54800        1.33922        2.17692
H          3.93018        1.15449        3.28638
