101
/cluster/projects/nn2506k/marcof/RuC_BondLength/evolutionary_desing/RUN28052021044948/Gen013/M00000107_I_DFT.out	Energy: -1076507.3103587
Ru         0.15643        0.55855        0.03560
C         -0.33258       -0.01200        1.68878
C          2.03740        0.05164       -0.15253
Cl        -0.89662       -1.18214       -1.26977
Cl         0.44186        2.90980        0.50966
H          0.25293       -0.54138        2.44314
H         -1.38824        0.21645        1.95251
N          2.72096        0.31990       -1.33445
N          2.93759       -0.55908        0.71645
C          4.12044       -0.16735       -1.31611
C          2.20213        0.92329       -2.55426
C          4.34543       -0.67687        0.13689
H          4.80619        0.64748       -1.57928
H          4.25006       -0.96918       -2.05746
C          4.96781       -2.10464        0.17316
C          5.43667        0.14812        0.88992
C          6.48076       -1.88099       -0.09700
H          4.50452       -2.78542       -0.55171
H          4.82725       -2.53251        1.17381
C          6.78432       -0.41353        0.36288
H          7.09131       -2.61726        0.44541
H          6.71190       -2.00434       -1.16580
H          7.15905        0.18441       -0.48138
H          7.55851       -0.37741        1.14283
H          5.35184       -0.04475        1.96619
H          5.33169        1.22925        0.73218
C          2.30946        2.33379       -2.75406
C          1.69467        0.07896       -3.59005
C          3.04184        3.26990       -1.79802
C          1.75663        2.88238       -3.93531
C          4.40361        3.77829       -2.35777
H          2.40357        4.14102       -1.58958
H          3.20632        2.78470       -0.83086
C          5.13319        4.73062       -1.37961
H          5.05888        2.92035       -2.58898
H          4.23825        4.30059       -3.31455
C          6.48236        5.25237       -1.92223
H          5.30200        4.21120       -0.41937
H          4.47568        5.58738       -1.15081
H          7.17948        4.42390       -2.12833
H          6.96821        5.92631       -1.19888
H          6.34479        5.81301       -2.86074
C          1.15709        2.08650       -4.93402
H          1.79963        3.96457       -4.07356
C          0.50173        2.71506       -6.15656
C          1.16898        0.68529       -4.75234
C         -1.00816        3.03195       -5.94259
H          1.02260        3.64971       -6.42266
H          0.59904        2.03962       -7.02260
C         -1.67725        3.66696       -7.18469
H         -1.53744        2.10249       -5.67359
H         -1.11587        3.70969       -5.07909
C         -3.17508        3.98278       -6.97512
H         -1.56579        2.98620       -8.04752
H         -1.14302        4.59600       -7.45270
H         -3.74578        3.07009       -6.74066
H         -3.61752        4.43243       -7.87833
H         -3.32075        4.68958       -6.14270
H          0.75474        0.04299       -5.53198
C          1.75983       -1.43856       -3.52712
H          2.70954       -1.79821       -3.96091
H          0.94464       -1.88597       -4.10950
H          1.67594       -1.82241       -2.50774
C          2.65490       -1.05171        2.05393
C          2.83290       -0.19098        3.18133
C          2.21099       -2.40315        2.23765
C          3.13900        1.29623        3.07082
C          2.64274       -0.72510        4.47805
H          2.36093        1.87558        3.58962
H          3.16215        1.65119        2.03973
H          4.09979        1.54281        3.54940
C          2.25741       -2.06457        4.69536
H          2.77750       -0.06244        5.33589
C          2.09412       -2.62118        6.10401
C          2.02512       -2.87151        3.55953
C          3.39928       -3.25153        6.67339
H          1.76551       -1.81994        6.78599
H          1.30208       -3.38785        6.11250
C          3.22581       -3.81775        8.10299
H          3.73719       -4.05600        5.99824
H          4.19800       -2.49037        6.67445
C          4.51811       -4.44310        8.67369
H          2.42424       -4.57749        8.09929
H          2.88362       -3.01124        8.77541
H          4.86869       -5.27824        8.04627
H          4.35473       -4.83430        9.69032
H          5.33094       -3.70119        8.72745
H          1.66935       -3.89105        3.70913
C          1.81870       -3.31103        1.06943
C          2.35940       -4.76589        1.11299
H          0.71649       -3.35439        1.03490
H          2.11479       -2.85079        0.12193
C          1.92912       -5.59170       -0.12424
H          3.45997       -4.75614        1.18084
H          1.99926       -5.28155        2.01776
C          2.43940       -7.04939       -0.09484
H          2.29368       -5.09646       -1.04162
H          0.82758       -5.59143       -0.19569
H          3.54021       -7.08874       -0.05861
H          2.11420       -7.60157       -0.99061
H          2.05683       -7.58898        0.78654
