111
/cluster/projects/nn2506k/marcof/RuC_BondLength/evolutionary_desing/RUN28052021044948/Gen017/M00000127_I_DFT.out	Energy: -1195221.3867301
Ru         0.23064        0.61656        0.08266
C         -0.18584        0.12435        1.78066
C          2.12151        0.14373       -0.12030
Cl        -0.79591       -1.21453       -1.11855
Cl         0.38707        3.00580        0.43345
H          0.45926       -0.31932        2.54230
H         -1.24169        0.31434        2.07287
N          2.77989        0.43467       -1.31097
N          3.03397       -0.48369        0.72506
C          4.20841        0.03905       -1.28784
C          2.21925        1.06865       -2.49557
C          4.39853       -0.69762        0.06812
H          4.84680        0.92921       -1.36034
H          4.43395       -0.60655       -2.14585
C          4.80091       -2.19387       -0.11856
C          5.62338       -0.15484        0.86499
C          6.32336       -2.16244       -0.42399
H          4.21950       -2.69106       -0.90538
H          4.62221       -2.72846        0.82172
C          6.85223       -0.82165        0.19158
H          6.82880       -3.03956        0.00581
H          6.51154       -2.18950       -1.50784
H          7.26624       -0.17474       -0.59678
H          7.65988       -0.99058        0.91861
H          5.54779       -0.48310        1.90932
H          5.67934        0.94076        0.85904
C          2.30280        2.48867       -2.66605
C          1.65237        0.26490       -3.53349
C          3.09233        3.39001       -1.71797
C          1.65663        3.07993       -3.76914
C          4.52689        3.78668       -2.20085
H          2.52145        4.31199       -1.53574
H          3.18101        2.90394       -0.74111
C          4.60717        4.86252       -3.31108
H          5.07278        4.16694       -1.31827
H          5.07216        2.88999       -2.54068
C          6.05926        5.27761       -3.64096
H          4.03869        5.75430       -2.99270
H          4.12359        4.49024       -4.22715
H          6.56815        5.69346       -2.75622
H          6.08397        6.04421       -4.43192
H          6.65047        4.41644       -3.99272
C          0.96895        2.31361       -4.75519
H          1.68017        4.16295       -3.84322
N          0.28246        2.92731       -5.81189
C          1.03072        0.89661       -4.62864
C          0.19771        4.39167       -5.89085
C         -0.43417        2.11251       -6.80168
H          1.19141        4.85731       -6.01561
H         -0.27118        4.82568       -4.99029
H         -0.41241        4.67692       -6.75583
H         -0.92736        2.76843       -7.52855
H         -1.21181        1.48387       -6.33284
H          0.24863        1.44893       -7.36118
H          0.57252        0.25998       -5.38144
C          1.72651       -1.26061       -3.54856
C          2.74125       -1.81958       -4.58919
H          1.97994       -1.64345       -2.55484
H          0.73085       -1.66662       -3.77847
C          2.80539       -3.36628       -4.59357
H          2.46679       -1.46683       -5.59712
H          3.74771       -1.41265       -4.38918
C          3.79774       -3.93765       -5.63087
H          1.79699       -3.76984       -4.79180
H          3.08452       -3.72485       -3.58653
H          3.52451       -3.63284       -6.65393
H          3.81323       -5.03888       -5.60321
H          4.82406       -3.58350       -5.44105
C          2.80295       -0.95656        2.07999
C          3.12340       -0.11588        3.19504
C          2.29577       -2.27740        2.31653
C          3.54861        1.34899        3.04879
C          3.02837       -0.63617        4.50232
C          2.62874        2.37256        3.77383
H          4.57186        1.46752        3.44717
H          3.58727        1.62458        1.99033
C          3.11943        3.83052        3.60490
H          1.60886        2.29060        3.37209
H          2.57113        2.13761        4.84950
C          2.20949        4.86144        4.30892
H          3.16752        4.07179        2.52982
H          4.14896        3.92135        3.99763
H          1.18831        4.82590        3.89898
H          2.58973        5.88646        4.17234
H          2.14680        4.66912        5.39268
C          2.58457       -1.96279        4.76632
H          3.29542        0.01945        5.32624
N          2.51878       -2.46932        6.07229
C          2.19117       -2.74508        3.64270
C          2.84880       -1.61162        7.21828
C          2.02403       -3.83045        6.31750
H          2.18032       -0.73464        7.28913
H          3.88823       -1.24394        7.16770
H          2.74563       -2.18529        8.14669
H          2.61326       -4.58139        5.76454
H          0.96320       -3.95075        6.03048
H          2.10959       -4.06421        7.38517
H          1.77875       -3.73673        3.79869
C          1.74459       -3.16234        1.19342
C          2.16616       -4.65642        1.21059
H          0.64381       -3.11650        1.24109
H          1.99999       -2.73316        0.22091
C          1.58831       -5.44563        0.00983
H          3.26605       -4.73895        1.20639
H          1.82502       -5.14180        2.13962
C          1.97116       -6.94217        0.01935
H          1.93501       -4.98665       -0.93256
H          0.48885       -5.34881        0.00721
H          3.06463       -7.07689       -0.01337
H          1.54340       -7.46677       -0.84967
H          1.60007       -7.44423        0.92765
