95
/cluster/projects/nn2506k/marcof/RuC_BondLength/evolutionary_desing/RUN28052021121055/Gen036/M00000236_I_DFT.out	Energy: -1245307.2820429
Ru         0.20145        0.86877       -0.09632
C         -0.33395        0.34765        1.55771
C          2.03072        0.21230       -0.28971
Cl        -1.20349       -0.60351       -1.39669
Cl         0.84014        3.16081        0.28822
H          0.10586       -0.42274        2.19304
H         -1.27857        0.80918        1.91604
N          2.66594        0.30487       -1.52984
N          2.96932       -0.22264        0.63360
C          4.21740        0.25670       -1.37655
C          1.92604        0.21762       -2.77722
C          4.32257       -0.63709       -0.02897
C          4.65871        1.75863       -1.18585
C          4.92408       -0.40687       -2.59625
C          5.56726       -0.22933        0.82702
C          4.26262       -2.20130       -0.19862
C          5.98338       -1.05819        2.07421
H          5.45948        0.81358        1.13689
H          6.42251       -0.25472        0.13736
C          7.26836       -0.48170        2.71656
H          6.17045       -2.10703        1.80681
H          5.19078       -1.06645        2.83169
H          7.12194        0.55899        3.04663
H          7.56586       -1.07281        3.59700
H          8.11264       -0.49097        2.00842
C          5.47894       -3.00112       -0.75214
H          3.37168       -2.46335       -0.77362
H          4.08648       -2.58481        0.81374
C          5.35763       -4.50679       -0.41413
H          6.42964       -2.62251       -0.34877
H          5.54781       -2.90551       -1.84209
H          5.36836       -4.68134        0.67405
H          4.42076       -4.92817       -0.81123
H          6.19291       -5.07667       -0.85122
C          6.15693        2.18467       -1.21648
H          4.20004        2.14342       -0.26757
H          4.17058        2.29793       -1.99996
C          6.28260        3.71561       -1.41663
H          6.70178        1.67910       -2.02752
H          6.67694        1.92135       -0.28650
H          5.76457        4.26310       -0.61355
H          7.33934        4.02839       -1.41059
H          5.83678        4.03392       -2.37083
C          5.02236        0.35756       -3.94510
H          4.45729       -1.37642       -2.79587
H          5.95314       -0.62240       -2.27272
C          5.85890       -0.43919       -4.97387
H          5.47506        1.34689       -3.80846
H          4.02655        0.53678       -4.36550
H          5.41533       -1.42714       -5.17881
H          5.91911        0.10308       -5.93049
H          6.88971       -0.60295       -4.61884
C          1.38888        1.30713       -3.54205
C          1.62854       -1.07462       -3.28340
C          0.61467        1.03502       -4.70005
C          1.63967        2.79452       -3.32037
C          0.36499       -0.26728       -5.18298
H          0.20295        1.87667       -5.25610
C         -0.49764       -0.50612       -6.41396
C          0.90042       -1.34084       -4.44503
C         -1.99887       -0.70978       -6.06665
H         -0.13445       -1.39410       -6.95561
H         -0.40329        0.34655       -7.10492
H         -2.41219        0.17153       -5.55477
H         -2.14071       -1.57436       -5.40234
H         -2.58260       -0.88043       -6.98444
H          0.72933       -2.37816       -4.73010
C          0.43818        3.73993       -3.33173
O          2.80634        3.25398       -3.24506
H          0.32740        4.18144       -4.33649
H         -0.49910        3.24381       -3.05771
H          0.63715        4.55866       -2.63116
F          2.07960       -2.20148       -2.57787
C          2.76398       -0.23363        2.05867
C          2.34938       -1.37741        2.82076
C          3.05113        0.93468        2.80625
C          2.25795       -1.28066        4.23326
C          1.89664       -2.68662        2.19273
C          2.51057       -0.08448        4.94329
H          1.94723       -2.15792        4.79865
C          2.32087       -0.00134        6.45182
C          2.91938        1.04021        4.19673
C          0.90250        0.48474        6.86012
H          3.06771        0.68460        6.88194
H          2.50234       -0.98952        6.90328
H          0.12386       -0.19718        6.48688
H          0.69298        1.48669        6.45738
H          0.81620        0.53318        7.95639
H          3.14683        1.99364        4.67274
C          2.21949       -3.99598        2.92260
O          1.23327       -2.70512        1.12748
H          3.19980       -3.97762        3.41715
H          1.45544       -4.20344        3.68977
H          2.18088       -4.81584        2.19527
F          3.52578        2.06996        2.14187
