112
/cluster/projects/nn2506k/marcof/RuC_BondLength/evolutionary_desing/RUN28052021044732/Gen015/M00000112_I_DFT.out	Energy: -1232207.2681445
Ru        -0.19844       -0.06157       -0.12721
C         -0.60680       -0.70756        1.52036
C          1.73359       -0.34173       -0.34868
Cl        -1.13573       -1.87985       -1.42312
Cl        -0.24040        2.29015        0.46374
H          0.04263       -1.16731        2.26726
H         -1.67943       -0.60275        1.79365
N          2.39658        0.19134       -1.45448
N          2.67824       -0.98896        0.44016
C          3.88377        0.16381       -1.23799
C          1.76963        0.94428       -2.54144
C          4.08947       -1.04232       -0.22944
C          4.73789        0.25136       -2.50103
H          4.13701        1.06472       -0.65784
C          5.27199       -0.66634        0.72565
C          4.28916       -2.44883       -0.88591
C          5.76502       -1.66054        1.81029
H          5.03892        0.28946        1.21288
H          6.12425       -0.46108        0.05713
C          7.08903       -1.18216        2.45950
H          5.00894       -1.77854        2.59375
H          5.92497       -2.65966        1.38226
C          7.60119       -2.12666        3.57348
H          7.86725       -1.08492        1.68072
H          6.94637       -0.17063        2.88097
C          8.92368       -1.65694        4.22661
H          7.74419       -3.13924        3.15540
H          6.82545       -2.22219        4.35403
C          9.43175       -2.60237        5.33805
H          8.78239       -0.64524        4.64651
H          9.70053       -1.56180        3.44731
H          8.69552       -2.69214        6.15299
H          9.62035       -3.61462        4.94562
H         10.37246       -2.23319        5.77654
C          5.67954       -2.82461       -1.46879
H          3.54098       -2.56627       -1.67919
H          4.05401       -3.19046       -0.11457
C          5.64619       -4.21936       -2.14481
H          6.01297       -2.08912       -2.20865
H          6.44225       -2.84133       -0.67675
C          7.01624       -4.65890       -2.71504
H          5.29913       -4.97319       -1.41504
H          4.89991       -4.20858       -2.95811
C          6.98646       -6.04792       -3.39785
H          7.76436       -4.67239       -1.90183
H          7.36571       -3.90545       -3.44371
C          8.35386       -6.48353       -3.97038
H          6.23854       -6.03690       -4.21021
H          6.63974       -6.80307       -2.67040
H          9.11797       -6.54236       -3.17849
H          8.28922       -7.47469       -4.44683
H          8.71411       -5.77052       -4.72952
C          5.80372        1.18622       -2.53950
N          4.45181       -0.54974       -3.56966
C          6.60036        1.28837       -3.69761
H          6.00263        1.82855       -1.68153
C          6.30169        0.46582       -4.80314
H          7.42544        2.00085       -3.73891
C          5.21712       -0.43047       -4.68729
H          6.88112        0.51762       -5.72521
H          4.94472       -1.08256       -5.52013
C          1.82346        2.37120       -2.52148
C          1.18612        0.23966       -3.63870
C          2.50766        3.13477       -1.39642
C          1.21728        3.10055       -3.58225
H          2.59764        2.53350       -0.49105
H          1.92908        4.02027       -1.11255
H          3.51241        3.47758       -1.69885
C          1.30209        4.62415       -3.59339
C          0.51734        2.41298       -4.61487
H          2.26146        4.97920       -3.19646
H          0.50904        5.07920       -2.97450
H          1.20329        5.03303       -4.60532
C         -0.25028        3.20639       -5.66923
C          0.53406        0.98966       -4.66313
H          0.40681        3.54680       -6.48895
H         -0.71861        4.09961       -5.23641
H         -1.05160        2.61313       -6.12197
C         -0.14466        0.26900       -5.82519
H          0.17058       -0.77432       -5.90818
H          0.07287        0.75363       -6.78759
H         -1.24147        0.26223       -5.70317
C          1.27599       -1.27189       -3.76252
H          1.85861       -1.54343       -4.65539
H          0.28404       -1.73071       -3.84094
H          1.77628       -1.71701       -2.90533
C          2.42249       -1.56083        1.75567
C          2.02920       -2.92810        1.88093
C          2.57193       -0.72797        2.90931
C          1.62195       -3.76191        0.67333
C          1.91501       -3.49422        3.18509
H          1.57331       -3.16718       -0.23735
H          0.61875       -4.18395        0.82735
H          2.30351       -4.60822        0.49600
C          1.54102       -4.96390        3.34987
C          2.12094       -2.69021        4.34319
H          2.09931       -5.43257        4.17119
H          1.74169       -5.54740        2.44615
H          0.46804       -5.08513        3.58029
C          1.96989       -3.32388        5.72290
C          2.42951       -1.30459        4.20676
H          1.07351       -3.95745        5.77764
H          1.88981       -2.58116        6.52148
H          2.83143       -3.97041        5.96344
C          2.60850       -0.44516        5.45673
H          3.33701       -0.89219        6.15001
H          1.66164       -0.33517        6.01090
H          2.96135        0.56291        5.22620
C          2.81677        0.76993        2.77727
H          3.77804        1.07323        3.22060
H          2.02745        1.33777        3.29042
H          2.80371        1.09472        1.73749
