75
/cluster/projects/nn2506k/marcof/RuC_BondLength/evolutionary_desing/RUN28052021044948/Gen025/M00000169_I_DFT.out	Energy: -899388.0730415
Ru         0.26900        0.93350        0.17425
C         -0.10866        0.49380        1.89518
C          2.02793        0.14712       -0.17997
Cl        -1.10947       -0.71225       -0.94231
Cl         0.87951        3.24966        0.53253
H          0.49428       -0.06853        2.61146
H         -1.09516        0.85953        2.25532
N          2.62451        0.31307       -1.42407
N          2.88069       -0.63236        0.59482
C          3.96215       -0.32053       -1.50872
C          2.12025        1.05258       -2.56927
C          4.11664       -1.10311       -0.17351
H          4.73671        0.45188       -1.62625
H          4.01014       -0.98080       -2.38437
C          4.18996       -2.64620       -0.39724
C          5.48534       -0.83111        0.52252
C          5.64778       -2.90206       -0.85692
H          3.44190       -3.00368       -1.11682
H          4.01032       -3.15390        0.55808
C          6.49998       -1.76415       -0.19816
H          5.99026       -3.90335       -0.55779
H          5.72813       -2.85530       -1.95356
H          7.06794       -1.21515       -0.96429
H          7.23573       -2.16529        0.51408
H          5.41073       -1.10527        1.58283
H          5.78032        0.22464        0.47040
C          2.47944        2.42307       -2.75052
C          1.39031        0.37328       -3.59238
C          3.45677        3.14093       -1.83171
C          1.97553        3.12512       -3.86231
H          3.26080        4.22061       -1.81883
H          4.49111        2.99796       -2.19115
H          3.39704        2.78977       -0.79891
C          1.14371        2.50413       -4.84014
H          2.24426        4.17400       -3.95879
N          0.60708        3.22919       -5.91183
C          0.90218        1.10621       -4.69110
C         -0.25771        2.56650       -6.89711
C          0.86801        4.66925       -6.03801
H         -1.14091        2.10577       -6.42154
H          0.27811        1.77874       -7.45631
H         -0.61691        3.30406       -7.62427
H          1.94218        4.88488       -6.17886
H          0.52207        5.22726       -5.15056
H          0.33314        5.06358       -6.90989
H          0.32854        0.56723       -5.44076
C          1.18830       -1.13437       -3.58656
H          2.05975       -1.63791       -4.04115
H          0.30575       -1.41310       -4.17663
H          1.04514       -1.53353       -2.57981
C          2.70000       -1.00308        1.98527
C          3.19625       -0.14609        3.01939
C          2.05068       -2.22397        2.34274
C          3.72154        1.25438        2.73955
C          3.12121       -0.56309        4.36305
H          2.88572        1.96314        2.64250
H          4.29029        1.32031        1.80792
H          4.36402        1.60374        3.55955
C          2.54616       -1.81292        4.74347
H          3.50344        0.11468        5.12221
N          2.51094       -2.22639        6.08185
C          1.99087       -2.60759        3.69976
C          3.01939       -1.34805        7.14441
C          1.86513       -3.49366        6.44951
H          2.45713       -0.39879        7.20723
H          4.08483       -1.10350        6.99495
H          2.92878       -1.85453        8.11235
H          2.31945       -4.34800        5.91986
H          0.78206       -3.49259        6.22853
H          1.98696       -3.66845        7.52484
H          1.47741       -3.53736        3.93423
C          1.33307       -3.11618        1.33687
H          0.28501       -3.25452        1.64168
H          1.79103       -4.11659        1.28717
H          1.31735       -2.69098        0.33220
