76
/cluster/projects/nn2506k/marcof/RuC_BondLength/evolutionary_desing/RUN28052021121055/Gen019/M00000146_I_DFT.out	Energy: -855372.8820926
Ru        -0.10769       -0.09897       -0.09536
C         -0.44232       -0.87933        1.50971
C          1.82927       -0.21311       -0.33198
Cl        -0.83207       -1.89698       -1.53908
Cl        -0.28670        2.21374        0.58579
H          0.25741       -1.31475        2.22540
H         -1.51833       -0.90031        1.78919
N          2.43690        0.36630       -1.44177
N          2.84310       -0.78977        0.43506
C          3.88972        0.08182       -1.49650
C          1.81351        1.08114       -2.54833
C          4.23115       -0.40534       -0.06941
H          4.08848       -0.69395       -2.25244
H          4.44632        0.98371       -1.77668
C          5.36275       -1.48730       -0.04795
H          4.58019        0.44568        0.54178
C          5.90347       -1.81717        1.36818
C          6.56090       -1.00717       -0.91954
H          4.96202       -2.40913       -0.49981
H          6.72902       -2.54112        1.28904
H          5.14544       -2.24835        2.02647
H          6.30434       -0.91339        1.85474
H          6.29966       -0.87195       -1.97753
H          7.36912       -1.75215       -0.87786
H          6.97064       -0.05574       -0.54366
C          1.76418        2.50602       -2.50106
C          1.39496        0.35701       -3.70305
C          2.41012        3.28018       -1.36102
C          1.12258        3.20167       -3.56549
H          2.79608        2.61527       -0.58590
H          1.69353        3.95022       -0.87088
H          3.24643        3.89500       -1.73418
C          1.01069        4.72279       -3.52872
C          0.57009        2.47736       -4.66233
H          0.01635        5.04042       -3.16996
H          1.15569        5.16705       -4.52276
H          1.74885        5.17652       -2.86032
C         -0.22018        3.21488       -5.73955
C          0.76480        1.06941       -4.76392
H          0.42348        3.53494       -6.57794
H         -0.70459        4.11379       -5.34168
H         -1.01174        2.58351       -6.16089
C          0.28922        0.31858       -6.00384
H          0.88973       -0.57759       -6.19521
H          0.34178        0.94103       -6.90559
H         -0.75753       -0.01484       -5.89405
C          1.64679       -1.13786       -3.83780
H          2.41361       -1.33206       -4.60745
H          0.73796       -1.67615       -4.12986
H          1.98065       -1.58573       -2.90059
C          2.66746       -1.46374        1.70848
C          2.43601       -2.87064        1.72060
C          2.77771       -0.71034        2.91365
C          2.30356       -3.65343        0.42151
C          2.30852       -3.53428        2.97749
H          2.38614       -3.00435       -0.45100
H          1.32518       -4.15043        0.35381
H          3.07658       -4.43411        0.34088
C          2.04987       -5.03781        3.03118
C          2.42508       -2.79494        4.19215
H          2.74986       -5.54394        3.71238
H          2.14891       -5.51376        2.05233
H          1.03146       -5.25814        3.39289
C          2.26654       -3.49540        5.53852
C          2.68462       -1.39279        4.16057
H          1.71789       -2.87089        6.25567
H          3.24635       -3.72299        5.99371
H          1.72324       -4.44158        5.45306
C          2.84869       -0.62247        5.46726
H          3.41791        0.30292        5.33063
H          3.37550       -1.21792        6.22410
H          1.87244       -0.34087        5.89933
C          2.95630        0.80175        2.88163
H          2.26850        1.29462        3.58195
H          2.74283        1.21709        1.89506
H          3.97910        1.09930        3.16793
