77
/cluster/projects/nn2506k/marcof/RuC_BondLength/evolutionary_desing/RUN28052021044732/Gen000/M00000010_I_DFT.out	Energy: -879273.1401327
Ru         0.00198       -0.27397       -0.01245
C         -0.30943        0.23728        1.70252
C          1.90246        0.10962       -0.26255
Cl        -0.08602       -2.66366        0.33903
Cl        -0.88833        1.65325       -1.17290
H          0.40681        0.59072        2.44839
H         -1.36800        0.15737        2.03007
N          2.77645        0.86563        0.50534
N          2.60684       -0.31295       -1.39777
C          4.14689        0.90465       -0.07045
C          2.59728        1.53218        1.78340
C          3.99762        0.30533       -1.49600
H          4.83420        0.31632        0.55771
H          4.51133        1.93914       -0.08983
C          4.14824        1.39041       -2.61114
C          5.16207       -0.66285       -1.86221
C          5.67683        1.61832       -2.72820
H          3.58956        2.30892       -2.38851
H          3.76452        0.98385       -3.55349
C          6.33328        0.26184       -2.29985
H          5.95712        1.91029       -3.75059
H          6.00793        2.43274       -2.06620
H          7.04166        0.41986       -1.47257
H          6.90421       -0.19351       -3.12204
H          4.84945       -1.29702       -2.70210
H          5.43917       -1.32303       -1.03249
C          2.91285        0.82086        2.97916
C          2.23481        2.90974        1.80251
C          3.30239       -0.65132        2.93404
C          2.82810        1.50385        4.22687
H          3.16188       -1.07852        1.93979
H          2.68945       -1.24779        3.62509
H          4.35517       -0.80171        3.22454
C          3.18054        0.78082        5.52382
C          2.40805        2.86618        4.26800
H          3.76341        1.42408        6.19723
H          3.77306       -0.12205        5.34746
H          2.27636        0.47102        6.07606
C          2.25338        3.57169        5.61202
C          2.13700        3.57411        3.06050
H          1.97423        2.87399        6.41010
H          1.48082        4.34846        5.57813
H          3.19242        4.06233        5.92357
C          1.74059        5.04610        3.12316
H          1.81951        5.54001        2.15068
H          2.37356        5.60601        3.82602
H          0.69707        5.16732        3.46106
C          1.94784        3.66011        0.51008
H          1.97581        2.99922       -0.35672
H          2.67441        4.47364        0.35023
H          0.94623        4.11153        0.52396
C          2.12710       -1.30767       -2.35994
C          2.42731       -2.68508       -2.12185
C          1.42445       -0.89927       -3.53552
C          3.16566       -3.14511       -0.87360
C          1.98783       -3.66228       -3.05840
H          2.58272       -3.90826       -0.34371
H          3.33081       -2.32769       -0.17187
H          4.14521       -3.58430       -1.12164
C          2.28892       -5.13695       -2.81154
C          1.23920       -3.27318       -4.20577
H          3.21249       -5.27953       -2.23955
H          2.40008       -5.69597       -3.74853
H          1.47814       -5.61630       -2.23557
C          0.69119       -4.34308       -5.14617
C          0.98721       -1.89529       -4.46040
H          0.34895       -5.22529       -4.59027
H          1.45513       -4.68828       -5.86487
H         -0.16253       -3.98148       -5.72812
C          0.23511       -1.48687       -5.72486
H          0.57005       -2.06352       -6.59804
H          0.37039       -0.42908       -5.96713
H         -0.85057       -1.65538       -5.61953
C          1.10709        0.56158       -3.81973
H          1.37873        1.21079       -2.98973
H          0.03236        0.70633       -3.98654
H          1.63013        0.91743       -4.72214
