76
/cluster/projects/nn2506k/marcof/RuC_BondLength/evolutionary_desing/RUN28052021044732/Gen000/M00000020_I_DFT.out	Energy: -936390.0139731
Ru        -0.20010       -0.13529       -0.19245
C         -0.52103       -0.92369        1.41212
C          1.74024       -0.21232       -0.38285
Cl        -0.83767       -1.93382       -1.67368
Cl        -0.46985        2.16553        0.48968
H          0.19647       -1.31187        2.13855
H         -1.59604       -0.99406        1.68520
N          2.37957        0.41292       -1.45231
N          2.73083       -0.81577        0.39135
C          3.84893        0.19685       -1.45330
C          1.78051        1.15014       -2.55781
C          4.12416       -0.41952       -0.06223
H          4.13498       -0.47048       -2.27896
H          4.37986        1.14759       -1.58952
C          5.18471       -1.52121       -0.04997
H          4.50043        0.34609        0.62828
C          5.17500       -2.63417       -0.92476
N          6.19622       -1.31767        0.85043
C          6.22895       -3.56682       -0.86344
H          4.36095       -2.77678       -1.63320
C          7.27072       -3.36541        0.06712
H          6.23723       -4.43161       -1.52847
C          7.20876       -2.22740        0.89862
H          8.10505       -4.06283        0.14562
H          7.99268       -2.02511        1.63114
C          1.70968        2.57209       -2.47430
C          1.40705        0.45100       -3.74336
C          2.29668        3.32454       -1.28908
C          1.09863        3.28800       -3.54303
H          2.63571        2.64701       -0.50325
H          1.55710        3.99104       -0.82950
H          3.15481        3.94120       -1.60568
C          0.97385        4.80664       -3.47175
C          0.58786        2.58617       -4.67382
H          1.10406        5.27416       -4.45657
H          1.71701        5.25094       -2.80193
H         -0.01865        5.10796       -3.09397
C         -0.17439        3.34403       -5.75690
C          0.79791        1.18253       -4.80347
H         -0.92082        2.70730       -6.24602
H          0.49834        3.72402       -6.54600
H         -0.70949        4.20723       -5.34415
C          0.36108        0.46213       -6.07547
H          0.92337       -0.46293       -6.23943
H          0.49985        1.08740       -6.96695
H         -0.70659        0.18479       -6.03218
C          1.68523       -1.03643       -3.90730
H          0.78558       -1.58624       -4.20695
H          2.02880       -1.49381       -2.97803
H          2.45430       -1.20231       -4.68095
C          2.60267       -1.48034        1.67978
C          2.36909       -2.88564        1.72352
C          2.79756       -0.71548        2.86720
C          2.08735       -3.67648        0.45402
C          2.35094       -3.53846        2.99216
H          2.03792       -3.03114       -0.42293
H          1.11845       -4.19223        0.51783
H          2.85683       -4.44305        0.27582
C          2.11029       -5.04366        3.07759
C          2.56342       -2.78983        4.18703
H          2.85505       -5.53333        3.72188
H          2.15975       -5.52992        2.09985
H          1.11724       -5.27195        3.50054
C          2.52049       -3.48228        5.54628
C          2.80733       -1.38674        4.12311
H          2.04457       -2.84976        6.30674
H          3.53536       -3.71815        5.91175
H          1.96207       -4.42326        5.51480
C          3.07681       -0.60156        5.40335
H          3.65762        0.30690        5.21136
H          3.64251       -1.19734        6.13071
H          2.13983       -0.28983        5.89752
C          2.95155        0.79890        2.81338
H          3.99573        1.10920        2.98367
H          2.33885        1.28297        3.58571
H          2.62343        1.20959        1.85597
