87
/cluster/projects/nn2506k/marcof/RuC_BondLength/evolutionary_desing/RUN28052021044732/Gen000/M00000025_I_DFT.out	Energy: -1372402.3913983
Ru         0.00831        0.17394        0.04028
C         -0.15283       -0.43526        1.75833
C          1.93351        0.15928       -0.14018
Cl        -0.79008       -1.96029       -0.89783
Cl        -0.39984        2.53813        0.40284
H          0.61994       -0.85144        2.41117
H         -1.17955       -0.47282        2.17709
N          2.91314        0.80546        0.61639
N          2.60966       -0.38110       -1.25064
C          4.27673        0.69823        0.02033
C          2.76314        1.50719        1.86615
C          4.03158        0.14827       -1.40944
H          4.88023        0.01301        0.62513
H          4.74793        1.68412       -0.00069
C          4.14811        1.22861       -2.53294
C          5.14074       -0.85907       -1.82944
C          5.67388        1.36689       -2.79813
H          3.67223        2.17187       -2.25029
H          3.64792        0.85305       -3.43670
C          6.32564        0.05443       -2.24190
H          5.87392        1.49577       -3.87170
H          6.08584        2.25126       -2.29111
H          6.96019        0.27879       -1.37121
H          6.96842       -0.44001       -2.98425
H          4.81378       -1.43836       -2.70382
H          5.40742       -1.56526       -1.03396
C          2.82658        0.80051        3.10358
C          2.56175        2.92070        1.96128
C          2.57392        1.45697        4.33215
C          3.15567       -0.66693        3.26382
C          2.31188        2.83994        4.40368
H          2.58480        0.86146        5.24460
C          1.98266        3.52107        5.72175
C          2.33957        3.56105        3.19546
C          0.45402        3.53438        6.02506
H          2.50331        3.01035        6.54761
H          2.34842        4.56014        5.70664
C          0.11391        4.23579        7.36121
H         -0.07493        4.03711        5.19847
H          0.07988        2.49701        6.04766
C         -1.39991        4.25023        7.66849
H          0.49032        5.27372        7.33489
H          0.64890        3.73211        8.18584
H         -1.96191        4.77720        6.88134
H         -1.60502        4.75798        8.62405
H         -1.80307        3.22755        7.73913
H          2.16535        4.63435        3.18711
O          4.36805       -1.01044        2.68413
O          2.48046       -1.45672        3.95942
C          4.82675       -2.41277        2.89612
H          4.85943       -2.63709        3.97011
H          4.15084       -3.10386        2.38181
H          5.82929       -2.44014        2.45617
N          2.60333        3.85260        0.78854
O          3.22149        3.48298       -0.27440
O          2.07147        5.01120        0.92014
C          2.07602       -1.30378       -2.21443
C          2.42953       -2.68183       -2.21315
C          1.30037       -0.86200       -3.32530
N          3.13994       -3.31620       -1.07212
C          2.09374       -3.55039       -3.26925
O          3.95567       -4.28112       -1.34126
O          2.89757       -2.90657        0.11770
C          1.37402       -3.08799       -4.38844
H          2.39520       -4.59341       -3.19660
C          1.04026       -4.01226       -5.54862
C          0.97635       -1.73321       -4.38793
C          2.13109       -4.01808       -6.66061
H          0.90820       -5.04068       -5.17719
H          0.07969       -3.71194       -5.99622
C          1.78270       -4.95909       -7.83834
H          2.26977       -2.99119       -7.03968
H          3.09632       -4.32186       -6.22095
C          2.85956       -4.97138       -8.94566
H          0.81464       -4.65522       -8.27400
H          1.64146       -5.98507       -7.45553
H          3.00064       -3.96793       -9.37807
H          2.57668       -5.65130       -9.76443
H          3.83273       -5.30722       -8.55349
H          0.37825       -1.34571       -5.21116
C          0.66430        0.48846       -3.29527
O          0.64953        1.11327       -4.52739
O          0.13466        0.99675       -2.27930
C         -0.05427        2.42415       -4.59751
H         -1.11838        2.29105       -4.36151
H          0.39180        3.13023       -3.88567
H          0.08745        2.75378       -5.63159
