71
/cluster/projects/nn2506k/marcof/RuC_BondLength/evolutionary_desing/RUN28052021121055/Gen000/M00000018_I_DFT.out	Energy: -1055970.6608472
Ru         0.07880        0.86883        0.32499
C         -0.32454        0.38176        2.02905
C          1.89162        0.24402       -0.00786
Cl        -1.29876       -0.66015       -0.90929
Cl         0.65303        3.17802        0.66836
H          0.26126       -0.19677        2.74613
H         -1.31851        0.73139        2.37877
N          2.46113        0.42172       -1.28270
N          2.90246       -0.19402        0.84457
C          3.99964        0.48955       -1.19507
C          1.73729        0.37609       -2.54691
C          4.27126       -0.35828        0.13138
C          4.43267        1.97346       -1.02989
C          4.68603       -0.08504       -2.45460
C          5.44947        0.18657        0.97984
C          4.59317       -1.85415       -0.12388
H          5.33630        1.22754        1.27922
H          6.37674        0.09150        0.39768
H          5.57831       -0.42002        1.88578
H          3.83883       -2.36344       -0.72214
H          4.69973       -2.37505        0.83263
H          5.55802       -1.93875       -0.64055
H          3.92746        2.45751       -0.18843
H          4.20475        2.53309       -1.93803
H          5.51738        2.04100       -0.87870
H          4.39395       -1.11437       -2.67805
H          5.77578       -0.05957       -2.31689
H          4.45801        0.53425       -3.33143
C          1.39104        1.54065       -3.32280
C          1.39100       -0.89751       -3.10828
C          1.61891        3.00070       -2.89516
C          0.76851        1.36391       -4.58315
C          0.28526        3.80486       -2.87458
C          2.64000        3.71959       -3.82771
H          2.00760        3.01014       -1.87410
H         -0.47758        3.31331       -2.25932
H         -0.12499        3.95060       -3.88430
H          0.46787        4.79790       -2.44017
H          2.23182        3.85797       -4.83942
H          3.58593        3.16899       -3.92935
H          2.86887        4.71733       -3.42438
C          0.46804        0.09374       -5.08107
H          0.50396        2.22804       -5.18345
N         -0.18252       -0.04208       -6.41690
C          0.76242       -1.06303       -4.34578
O         -0.43843        1.03300       -7.07414
O         -0.44609       -1.22694       -6.83984
H          0.50770       -2.04636       -4.72866
Cl         1.73516       -2.45905       -2.25485
C          2.74694       -0.55437        2.23906
C          2.34991       -1.88024        2.64473
C          3.03167        0.39801        3.26913
C          1.89391       -2.99065        1.67970
C          2.32212       -2.18908        4.02646
C          0.37511       -3.30126        1.84013
C          2.70933       -4.30547        1.85534
H          2.03473       -2.63557        0.65704
H         -0.24770       -2.43309        1.60131
H          0.13342       -3.64291        2.85746
H          0.09474       -4.10392        1.14240
H          2.47773       -4.80661        2.80621
H          3.79452       -4.14101        1.82121
H          2.44876       -5.00611        1.04815
C          2.65637       -1.23166        4.99141
H          2.03521       -3.18172        4.35888
N          2.63015       -1.60408        6.43788
C          2.99910        0.08131        4.63416
O          2.94249       -0.70085        7.29695
O          2.29958       -2.80842        6.74255
H          3.22292        0.82377        5.39436
Cl         3.39554        2.13021        2.90473
