67
/cluster/projects/nn2506k/marcof/RuC_BondLength/evolutionary_desing/RUN28052021121055/Gen000/M00000008_I_DFT.out	Energy: -1030479.5176964
Ru        -0.06034        0.07227       -0.04423
C         -0.35528       -0.58129        1.62864
C          1.82928       -0.09920       -0.25773
Cl        -0.88931       -1.79372       -1.30037
Cl        -0.34019        2.40169        0.44794
H          0.37115       -0.96675        2.34611
H         -1.41941       -0.57507        1.94252
N          2.47637        0.32756       -1.45180
N          2.84297       -0.61711        0.58325
C          3.88703        0.09410       -1.43203
C          1.81941        0.95523       -2.60801
C          4.14365       -0.54607       -0.02165
F          4.66378        1.27486       -1.61773
F          4.33910       -0.76369       -2.47933
F          5.07059        0.22590        0.73934
F          4.77683       -1.81779       -0.13192
C          1.73553        2.37777       -2.65601
C          1.37143        0.12541       -3.67751
C          2.34613        3.26584       -1.58321
C          1.07068        2.97423       -3.76593
H          2.65318        2.70775       -0.69834
H          1.63576        4.03050       -1.24949
H          3.24057        3.77748       -1.97285
C          0.96535        4.49331       -3.85175
C          0.50687        2.15678       -4.78863
H          0.93127        4.84330       -4.89008
H          1.81914        4.98747       -3.37505
H          0.05607        4.86388       -3.34721
C         -0.31560        2.79614       -5.90357
C          0.70989        0.74583       -4.77673
H          0.31426        3.09854       -6.75835
H         -0.84061        3.69242       -5.55320
H         -1.07761        2.10864       -6.28796
C          0.22110       -0.10861       -5.94193
H          0.83470       -1.00616       -6.07443
H          0.24779        0.44088       -6.89050
H         -0.81751       -0.44867       -5.78590
C          1.59929       -1.37801       -3.69078
H          1.93927       -1.76084       -2.72849
H          2.36576       -1.64219       -4.43669
H          0.67955       -1.91763       -3.94315
C          2.73344       -1.18401        1.92770
C          2.55269       -2.59023        2.06030
C          2.88745       -0.31560        3.04599
C          2.34376       -3.48719        0.84839
C          2.53839       -3.14439        3.37373
H          2.18391       -2.91931       -0.06913
H          1.46418       -4.13178        0.98330
H          3.21380       -4.14025        0.68137
C          2.38781       -4.65017        3.56559
C          2.67361       -2.29459        4.51145
H          3.05416       -5.02183        4.35538
H          2.62614       -5.20828        2.65548
H          1.35824       -4.92386        3.85415
C          2.60488       -2.89165        5.91328
C          2.87042       -0.89086        4.35015
H          1.96851       -3.78322        5.94695
H          2.20156       -2.17895        6.64161
H          3.60466       -3.19231        6.27233
C          3.07210       -0.00772        5.57747
H          3.72338       -0.49267        6.31681
H          2.11617        0.21350        6.08290
H          3.53240        0.95191        5.32479
C          3.02955        1.19050        2.87548
H          2.32603        1.72801        3.52637
H          2.83026        1.51618        1.85353
H          4.04543        1.52681        3.13285
