85
/cluster/projects/nn2506k/marcof/RuC_BondLength/evolutionary_desing/RUN28052021121055/Gen000/M00000006_I_DFT.out	Energy: -1091360.0409411
Ru        -0.21169        0.13355        0.00705
C         -0.56983       -0.90552        1.45299
C          1.72659        0.03281       -0.19973
Cl        -0.96598       -1.38279       -1.71676
Cl        -0.37574        2.28661        1.10051
H          0.12295       -1.46112        2.08852
H         -1.64724       -0.96530        1.71927
N          2.37508        0.69882       -1.24727
N          2.70770       -0.58827        0.56882
C          3.85240        0.38444       -1.27873
C          1.72715        1.28300       -2.42397
C          4.09408       -0.13887        0.15841
C          4.78850        1.50993       -1.72151
H          4.01316       -0.41297       -2.01409
C          5.21419       -1.17078        0.28761
H          4.38919        0.68118        0.82433
C          5.34658       -2.30853       -0.54277
N          6.13167       -0.87531        1.26078
C          6.44628       -3.16948       -0.35945
H          4.61133       -2.52353       -1.31532
C          7.39027       -2.87426        0.64663
H          6.56539       -4.05033       -0.99191
C          7.18875       -1.71664        1.42741
H          8.25585       -3.51435        0.81910
H          7.89398       -1.44182        2.21434
C          5.11337        2.63673       -0.93025
N          5.34333        1.31138       -2.95819
C          6.02398        3.58845       -1.42964
H          4.66667        2.77827        0.05171
C          6.58985        3.39444       -2.70728
H          6.28632        4.46281       -0.83240
C          6.21809        2.24124       -3.43013
H          7.29806        4.10788       -3.12937
H          6.63182        2.04318       -4.42095
C          1.40930        2.67369       -2.43327
C          1.51955        0.46619       -3.57505
C          1.76199        3.58200       -1.26638
C          0.76494        3.22209       -3.58208
H          2.16660        3.02042       -0.42526
H          0.88189        4.11661       -0.88992
H          2.50841        4.33196       -1.57273
C          0.38431        4.70017       -3.61373
C          0.47658        2.39613       -4.70633
H          0.60956        5.15604       -4.58791
H          0.91447        5.28236       -2.85494
H         -0.69480        4.84044       -3.42926
C         -0.29488        2.96290       -5.89530
C          0.90739        1.03845       -4.72471
H          0.37935        3.28409       -6.70862
H         -0.89998        3.83092       -5.61372
H         -0.98117        2.21788       -6.31786
C          0.70418        0.18121       -5.97003
H          1.53974       -0.51364       -6.12179
H          0.62265        0.78719       -6.87908
H         -0.21303       -0.42857       -5.89485
C          1.94072       -0.99526       -3.60965
H          2.08830       -1.40338       -2.60863
H          2.87550       -1.12050       -4.18208
H          1.17172       -1.61631       -4.08184
C          2.56331       -1.33269        1.81044
C          2.34566       -2.74109        1.75346
C          2.72686       -0.64963        3.04964
C          2.10408       -3.44673        0.42604
C          2.30292       -3.47864        2.97391
H          2.09062       -2.74594       -0.40884
H          1.13147       -3.96037        0.42233
H          2.87540       -4.20547        0.22447
C          2.07300       -4.98798        2.95186
C          2.47970       -2.81017        4.22161
H          2.81848       -5.51643        3.56419
H          2.13068       -5.40467        1.94300
H          1.07994       -5.25285        3.35257
C          2.40869       -3.59134        5.53085
C          2.71390       -1.40472        4.25714
H          1.89229       -4.54934        5.41609
H          1.87456       -3.02764        6.30718
H          3.41599       -3.80992        5.92634
C          2.94801       -0.70211        5.59097
H          3.45142       -1.35681        6.31252
H          1.99944       -0.37636        6.05298
H          3.57300        0.19048        5.47592
C          2.88285        0.86361        3.10108
H          2.27500        1.29427        3.90733
H          2.54798        1.33921        2.17690
H          3.93012        1.15452        3.28640
