74
/cluster/projects/nn2506k/marcof/RuC_BondLength/evolutionary_desing/RUN28052021121055/Gen000/M00000043_I_DFT.out	Energy: -884099.4023940
Ru        -0.18607       -0.09812       -0.16715
C         -0.51544       -0.92004        1.41878
C          1.75314       -0.18900       -0.36367
Cl        -0.85420       -1.86153       -1.67535
Cl        -0.41466        2.19400        0.56116
H          0.19530       -1.34978        2.12811
H         -1.59068       -0.97385        1.69487
N          2.39296        0.42932       -1.43706
N          2.74023       -0.79010        0.41345
C          3.85975        0.20426       -1.44611
C          1.79229        1.15347       -2.55063
C          4.14364       -0.42188       -0.05786
H          4.13975       -0.46449       -2.27076
H          4.39691        1.15161       -1.58258
C          5.15928       -1.54040       -0.08707
H          4.51358        0.35774        0.62526
C          5.30905       -2.59965       -0.96965
S          6.48706       -1.56793        1.15037
C          6.44329       -3.44233       -0.69795
H          4.62477       -2.78836       -1.79411
C          7.18360       -3.03273        0.39660
H          6.69896       -4.31539       -1.29561
H          8.07992       -3.47195        0.82112
C          1.71340        2.57582       -2.48083
C          1.42556        0.44079       -3.73010
C          2.29936        3.34272       -1.30427
C          1.09785        3.27772       -3.55645
H          2.64998        2.67365       -0.51611
H          1.55601        4.00437       -0.84378
H          3.14898        3.96587       -1.63078
C          0.96132        4.79609       -3.50030
C          0.59486        2.56193       -4.68212
H          1.11221        5.25626       -4.48589
H          1.68442        5.25149       -2.81647
H         -0.04224        5.09361       -3.14987
C         -0.17077        3.30374       -5.77389
C          0.81589        1.15887       -4.79888
H          0.49825        3.66359       -6.57546
H         -0.69766        4.17810       -5.37484
H         -0.92468        2.66163       -6.24460
C          0.38950        0.42260       -6.06516
H          0.98109       -0.48362       -6.23310
H          0.49816        1.04970       -6.95911
H         -0.66768        0.10944       -6.00970
C          1.70960       -1.04703       -3.87900
H          0.81578       -1.60000       -4.18968
H          2.03866       -1.49828       -2.94146
H          2.49098       -1.21673       -4.63953
C          2.60969       -1.46140        1.69538
C          2.40178       -2.87056        1.72723
C          2.77279       -0.69799        2.88897
C          2.16793       -3.65910        0.44700
C          2.36971       -3.52905        2.99237
H          2.13012       -3.00874       -0.42704
H          1.20982       -4.19752        0.48412
H          2.96097       -4.40412        0.28363
C          2.15891       -5.03894        3.06649
C          2.54044       -2.78129        4.19443
H          2.89186       -5.51422        3.73441
H          2.25248       -5.52041        2.08959
H          1.15714       -5.28982        3.45486
C          2.47936       -3.48151        5.54874
C          2.76263       -1.37384        4.14259
H          1.91558       -4.41904        5.50454
H          2.00008       -2.85186        6.30903
H          3.48918       -3.72665        5.92220
C          2.98389       -0.59311        5.43478
H          3.50261        0.35507        5.26023
H          3.58830       -1.16431        6.15158
H          2.02951       -0.35297        5.93522
C          2.90992        0.81905        2.84141
H          2.64168        1.22493        1.86391
H          3.93411        1.14793        3.08522
H          2.23826        1.29623        3.56801
