80
/cluster/projects/nn2506k/marcof/RuC_BondLength/evolutionary_desing/RUN28052021121055/Gen002/M00000059_I_DFT.out	Energy: -903926.8507376
Ru        -0.12476       -0.45281       -0.77218
C         -0.83586        1.21667       -0.85262
C          1.78793       -0.12129       -0.53650
Cl        -0.93172       -1.05060        1.42586
Cl        -0.06383       -0.98995       -3.13041
H         -0.33471        2.17642       -0.70344
H         -1.92652        1.25344       -1.06068
N          2.52582        1.04195       -0.70834
N          2.69315       -1.14935       -0.24362
C          3.97383        0.83499       -0.43578
C          2.11436        2.40510       -1.00122
C          4.16270       -0.70662       -0.41540
H          4.24448        1.29779        0.52688
H          4.56613        1.31999       -1.21936
C          5.08448       -1.17087        0.74680
C          4.75274       -1.24113       -1.76078
C          6.56720       -0.77132        0.53135
H          4.73507       -0.75005        1.69612
H          5.02252       -2.26558        0.83457
C          7.12572       -1.30171       -0.80670
H          6.67262        0.32703        0.56312
H          7.16119       -1.16170        1.37429
C          6.23483       -0.84889       -1.98391
H          7.16198       -2.40468       -0.77685
H          8.16124       -0.95323       -0.95317
H          6.58188       -1.30611       -2.92531
H          6.33359        0.24159       -2.11999
H          4.14180       -0.88874       -2.60298
H          4.68827       -2.33611       -1.75058
C          1.84699        3.29067        0.08550
C          2.11144        2.85691       -2.35256
C          1.85552        2.78976        1.52400
C          1.53844        4.65298       -0.19657
H          1.93433        1.70312        1.57421
H          0.92902        3.06528        2.04807
H          2.69198        3.21975        2.09917
C          1.27032        5.63151        0.94358
C          1.47481        5.10595       -1.54723
H          1.65212        5.26640        1.90185
H          0.19020        5.81698        1.07573
H          1.74311        6.60544        0.75701
C          1.07488        6.54768       -1.84676
C          1.78594        4.21950       -2.61929
H          0.40068        6.95191       -1.08290
H          0.55949        6.63518       -2.81028
H          1.95494        7.21351       -1.88851
C          1.76730        4.73703       -4.05446
H          2.23998        5.72588       -4.13417
H          0.73522        4.84048       -4.43155
H          2.29271        4.06975       -4.74359
C          2.43841        1.90800       -3.49590
H          1.63583        1.89495       -4.24599
H          2.55281        0.88146       -3.14881
H          3.36634        2.20650       -4.01132
C          2.32437       -2.46850        0.28197
C          2.19285       -2.62704        1.69770
C          2.15241       -3.58250       -0.59770
C          2.32284       -1.45724        2.66169
C          1.87787       -3.90960        2.22848
H          2.43700       -0.50706        2.14121
H          3.18285       -1.58184        3.33896
H          1.42183       -1.37472        3.28209
C          1.71895       -4.08464        3.73530
C          1.67626       -5.01943        1.35965
H          1.96701       -5.10178        4.06036
H          0.68041       -3.88153        4.05016
H          2.36190       -3.40015        4.30050
C          1.25151       -6.36453        1.94292
C          1.84160       -4.86238       -0.04530
H          0.79149       -7.01419        1.19211
H          0.51538       -6.23414        2.74699
H          2.10717       -6.91422        2.37266
C          1.67344       -6.06984       -0.96524
H          0.60825       -6.30766       -1.12959
H          2.14533       -6.96727       -0.54220
H          2.11914       -5.90815       -1.95070
C          2.24876       -3.44332       -2.10974
H          2.33150       -2.40553       -2.42318
H          1.34975       -3.84282       -2.59670
H          3.11170       -3.99672       -2.51419
