73
/cluster/projects/nn2506k/marcof/RuC_BondLength/evolutionary_desing/RUN28052021121055/Gen002/M00000058_I_DFT.out	Energy: -1204315.2817284
Ru        -0.05418        0.27775        0.03656
C         -0.48304       -0.79242        1.44085
C          1.84897        0.03022       -0.20682
Cl        -0.95279       -1.07733       -1.73980
Cl        -0.05745        2.37076        1.23826
H          0.16501       -1.42883        2.04586
H         -1.55916       -0.76890        1.71518
N          2.52198        0.65931       -1.27273
N          2.80477       -0.67403        0.53535
C          3.98616        0.42579       -1.23872
C          1.88747        1.18952       -2.49371
C          4.18239       -0.50102       -0.00037
C          4.86313        1.70806       -1.12922
H          4.31569       -0.05339       -2.16963
C          4.93614       -1.81381       -0.36940
H          4.82007       -0.03115        0.76010
F          4.25282       -2.63787       -1.28666
F          6.17931       -1.50552       -0.97208
F          5.23257       -2.59782        0.75777
F          4.57603        2.50138        0.00161
F          6.23112        1.35653       -1.02081
F          4.75849        2.52698       -2.26311
C          1.52281        2.56633       -2.56737
C          1.72811        0.31032       -3.60684
C          1.79919        3.54055       -1.43470
C          0.90158        3.04191       -3.76128
H          2.16920        3.04713       -0.53867
H          0.89077        4.07893       -1.13920
H          2.54594        4.28851       -1.74296
C          0.48500        4.50568       -3.87333
C          0.67462        2.15987       -4.85586
H          1.00624        5.14260       -3.15337
H         -0.59627        4.63065       -3.69014
H          0.69455        4.91001       -4.87258
C         -0.07068        2.65162       -6.09297
C          1.13786        0.81387       -4.79891
H         -0.69262        1.85941       -6.52754
H          0.62304        2.99219       -6.88148
H         -0.73609        3.49004       -5.86177
C          0.97811       -0.10313       -6.00688
H          1.77832       -0.85032       -6.06212
H          0.99640        0.45595       -6.94957
H          0.02287       -0.65528       -5.96901
C          2.14405       -1.15139       -3.54880
H          3.05256       -1.34022       -4.14577
H          1.35218       -1.79493       -3.94987
H          2.32937       -1.49478       -2.53212
C          2.64942       -1.30705        1.84788
C          2.27715       -2.68147        1.91760
C          2.95505       -0.54493        3.01241
C          1.87715       -3.46311        0.67363
C          2.23578       -3.31074        3.19619
H          1.77977       -2.82355       -0.20362
H          0.90550       -3.95658        0.81805
H          2.60878       -4.24956        0.43595
C          1.88015       -4.79036        3.30840
C          2.53315       -2.56359        4.37405
H          2.54179       -5.30709        4.01691
H          1.96661       -5.31154        2.35091
H          0.84608       -4.93653        3.66539
C          2.43668       -3.22797        5.74380
C          2.91156       -1.19254        4.28147
H          2.09477       -2.52420        6.51225
H          3.41547       -3.61800        6.07353
H          1.73657       -4.07015        5.74416
C          3.26848       -0.41758        5.54587
H          2.36600       -0.05321        6.06667
H          3.89093        0.45717        5.33320
H          3.82291       -1.04205        6.25817
C          3.28974        0.93805        2.93050
H          2.69965        1.50951        3.65895
H          3.06257        1.36630        1.95433
H          4.35240        1.13195        3.15237
