61
/cluster/projects/nn2506k/marcof/RuC_BondLength/evolutionary_desing/RUN28052021044732/Gen024/M00000160_I_DFT.out	Energy: -1328924.8523948
Ru        -0.15379        0.10652        0.55570
C         -0.39823       -1.30886        1.67697
C          1.62426       -0.21232       -0.08179
Cl        -1.67853       -0.58112       -1.15591
Cl         0.04409        1.88994        2.12016
H          0.18930       -2.22695        1.74492
H         -1.31134       -1.25966        2.30061
N          2.10476        0.19335       -1.36844
N          2.77136       -0.69968        0.60868
C          3.55626        0.26755       -1.39974
C          1.30919        0.43395       -2.58097
C          3.96928       -0.69344       -0.21576
Cl         4.18013        2.05256       -1.04087
Cl         4.31283       -0.12911       -3.03537
Cl         5.52222       -0.20773        0.67617
Cl         4.42030       -2.43935       -0.88174
C          0.87962        1.72989       -3.01055
C          1.02337       -0.70518       -3.39650
C          0.96024        3.02280       -2.22190
C          0.27078        1.88606       -4.27379
F          1.12768        2.85504       -0.83890
F         -0.23665        3.77823       -2.36352
F          1.99277        3.88410       -2.67040
C          0.05072        0.77800       -5.11021
H         -0.05271        2.86983       -4.59937
C          0.40705       -0.50285       -4.64911
C         -0.57617        0.90342       -6.46736
H          0.19426       -1.36027       -5.28486
O         -0.90486        2.22239       -6.76502
O         -0.78187       -0.05345       -7.24692
C         -1.53973        2.47027       -8.08024
H         -0.85402        2.19000       -8.89139
H         -2.46884        1.89158       -8.16977
H         -1.74258        3.54612       -8.09039
C          1.31766       -2.12891       -2.96985
H          1.00222       -2.82856       -3.75288
H          0.76582       -2.38602       -2.05774
H          2.38046       -2.30349       -2.77554
C          2.81615       -1.11354        2.01208
C          2.64511       -2.47858        2.41568
C          3.11225       -0.12363        2.99771
C          2.26134       -3.65890        1.53686
C          2.81185       -2.83719        3.76856
F          1.73056       -3.33643        0.27604
F          1.23921       -4.43480        2.17047
F          3.32676       -4.56026        1.32694
C          3.11442       -1.86770        4.74455
H          2.69000       -3.87101        4.08329
C          3.24411       -0.52620        4.34912
C          3.27417       -2.32234        6.16648
H          3.46419        0.22951        5.09978
O          3.57035       -1.26260        7.01720
O          3.15814       -3.50708        6.55000
C          3.74920       -1.59164        8.45152
H          2.82541       -2.02306        8.85984
H          4.57397       -2.30575        8.57774
H          3.98051       -0.63333        8.92775
C          3.33222        1.34989        2.71137
H          4.38362        1.61300        2.89717
H          2.71177        1.95398        3.38565
H          3.08671        1.64739        1.69364
