76
/cluster/projects/nn2506k/marcof/RuC_BondLength/evolutionary_desing/RUN28052021044732/Gen002/M00000041_I_DFT.out	Energy: -936390.0139731
Ru        -0.20010       -0.13530       -0.19246
C         -0.52103       -0.92369        1.41212
C          1.74024       -0.21232       -0.38285
Cl        -0.83766       -1.93384       -1.67368
Cl        -0.46987        2.16552        0.48965
H          0.19647       -1.31185        2.13856
H         -1.59604       -0.99406        1.68521
N          2.37957        0.41291       -1.45231
N          2.73083       -0.81577        0.39135
C          3.84893        0.19685       -1.45330
C          1.78051        1.15014       -2.55781
C          4.12416       -0.41952       -0.06223
H          4.13497       -0.47049       -2.27896
H          4.37986        1.14758       -1.58953
C          5.18472       -1.52121       -0.04997
H          4.50043        0.34609        0.62828
C          5.17501       -2.63417       -0.92475
N          6.19622       -1.31767        0.85043
C          6.22896       -3.56682       -0.86343
H          4.36096       -2.77679       -1.63320
C          7.27072       -3.36541        0.06712
H          6.23724       -4.43161       -1.52846
C          7.20876       -2.22739        0.89862
H          8.10505       -4.06283        0.14563
H          7.99268       -2.02510        1.63115
C          1.70968        2.57209       -2.47430
C          1.40704        0.45101       -3.74336
C          2.29668        3.32453       -1.28908
C          1.09863        3.28800       -3.54303
H          2.63571        2.64701       -0.50325
H          1.55710        3.99103       -0.82949
H          3.15481        3.94120       -1.60567
C          0.97385        4.80664       -3.47174
C          0.58786        2.58618       -4.67382
H          1.10409        5.27416       -4.45656
H          1.71699        5.25094       -2.80190
H         -0.01866        5.10796       -3.09400
C         -0.17439        3.34404       -5.75690
C          0.79790        1.18254       -4.80347
H         -0.92084        2.70732       -6.24599
H          0.49834        3.72399       -6.54602
H         -0.70946        4.20726       -5.34416
C          0.36108        0.46214       -6.07547
H          0.92340       -0.46290       -6.23945
H          0.49981        1.08742       -6.96694
H         -0.70658        0.18476       -6.03216
C          1.68522       -1.03643       -3.90730
H          0.78557       -1.58624       -4.20697
H          2.02878       -1.49382       -2.97803
H          2.45430       -1.20230       -4.68095
C          2.60267       -1.48034        1.67978
C          2.36909       -2.88564        1.72352
C          2.79756       -0.71548        2.86720
C          2.08735       -3.67648        0.45402
C          2.35094       -3.53847        2.99216
H          2.03792       -3.03114       -0.42293
H          1.11845       -4.19223        0.51783
H          2.85683       -4.44305        0.27583
C          2.11029       -5.04366        3.07759
C          2.56342       -2.78983        4.18703
H          2.85505       -5.53334        3.72187
H          2.15974       -5.52992        2.09985
H          1.11724       -5.27195        3.50056
C          2.52050       -3.48227        5.54628
C          2.80733       -1.38674        4.12310
H          2.04456       -2.84976        6.30674
H          3.53536       -3.71813        5.91176
H          1.96209       -4.42327        5.51480
C          3.07681       -0.60156        5.40335
H          3.65763        0.30689        5.21136
H          3.64250       -1.19733        6.13071
H          2.13983       -0.28982        5.89751
C          2.95155        0.79890        2.81338
H          3.99573        1.10920        2.98367
H          2.33885        1.28297        3.58571
H          2.62343        1.20959        1.85597
