59
/cluster/projects/nn2506k/marcof/RuC_BondLength/evolutionary_desing/RUN28052021044732/Gen002/M00000042_I_DFT.out	Energy: -842976.3073758
Ru        -0.12461       -0.05940        0.04796
C         -0.31725        0.46611        1.77653
C          1.76111        0.25040       -0.31791
Cl        -0.21413       -2.44729        0.35084
Cl        -1.00622        1.81133       -1.15632
H          0.44984        0.74855        2.50116
H         -1.36369        0.45566        2.14719
N          2.74148        0.95432        0.38362
N          2.36884       -0.17701       -1.50042
C          4.09672        0.83122       -0.24995
C          2.68433        1.55454        1.68883
C          3.76795        0.32091       -1.66139
H          4.70705        0.11167        0.31042
H          4.60154        1.80449       -0.25806
H          4.42147       -0.50408       -1.95906
H          3.79641        1.11806       -2.41783
C          2.27517        2.90804        1.91545
C          3.11124        0.80733        2.82243
C          2.29787        3.42265        3.23820
C          1.77606        3.91108        0.86917
C          2.74113        2.67528        4.34840
H          1.94435        4.44287        3.37874
C          2.79758        3.28382        5.74333
C          3.15114        1.34197        4.11995
C          4.16333        3.95215        6.06209
H          2.59806        2.50530        6.49657
H          2.00091        4.03658        5.84717
H          4.98747        3.22502        6.00748
H          4.15182        4.37756        7.07725
H          4.38286        4.76586        5.35496
H          3.48290        0.71443        4.94614
C          2.29280        3.91366       -0.56029
O          0.96712        4.80001        1.24598
H          3.37504        3.73572       -0.60867
H          1.78279        3.14345       -1.15067
H          2.06051        4.88845       -1.00578
Cl         3.58100       -0.94007        2.64852
C          1.80862       -1.02406       -2.51966
C          1.87203       -2.45645       -2.44160
C          1.23510       -0.46318       -3.68870
C          1.24542       -3.22906       -3.44755
C          2.69710       -3.18281       -1.39016
C          0.60324       -2.65246       -4.56635
H          1.26492       -4.31393       -3.36626
C         -0.04900       -3.51639       -5.63800
C          0.62770       -1.24674       -4.68615
C          0.92023       -3.90364       -6.78881
H         -0.91350       -2.98439       -6.06471
H         -0.44209       -4.43666       -5.17835
H          1.30623       -3.01112       -7.30362
H          0.39983       -4.52640       -7.53242
H          1.78231       -4.47383       -6.41130
H          0.17550       -0.75600       -5.54682
C          2.34056       -4.62075       -1.02311
O          3.71792       -2.64075       -0.88797
H          2.82700       -4.86193       -0.07110
H          1.25934       -4.76801       -0.92943
H          2.72934       -5.31716       -1.78507
Cl         1.30124        1.32407       -3.99219
