79
/cluster/projects/nn2506k/marcof/RuC_BondLength/evolutionary_desing/RUN28052021044732/Gen036/M00000219_I_DFT.out	Energy: -1316350.8813347
Ru        -0.17691       -0.05086        0.24769
C         -0.38389       -0.73495        1.92185
C          1.68226       -0.26538       -0.10840
Cl        -1.17534       -1.83300       -0.99368
Cl        -0.26570        2.28104        0.78406
H          0.35691       -1.20100        2.57329
H         -1.41955       -0.66527        2.31291
N          2.24628        0.13889       -1.35660
N          2.76180       -0.76208        0.66606
C          3.67540        0.06448       -1.35235
C          1.49379        0.50404       -2.56479
C          3.99145       -0.78907       -0.08012
F          4.31286        1.35058       -1.23595
F          4.21955       -0.47792       -2.53485
F          5.10052       -0.30923        0.64822
F          4.38052       -2.11739       -0.46814
C          1.20124        1.87279       -2.84618
C          1.11774       -0.55099       -3.45607
C          1.70675        3.06090       -2.03639
C          0.41687        2.14858       -3.99172
C          2.77302        3.90817       -2.79263
H          0.85194        3.71056       -1.79568
H          2.12505        2.74017       -1.07875
C          3.26825        5.11096       -1.95441
H          3.63124        3.27118       -3.05746
H          2.35000        4.27771       -3.74141
C          4.31718        5.97347       -2.69070
H          3.70059        4.74099       -1.00856
H          2.40627        5.74251       -1.67542
H          5.20879        5.38107       -2.95098
H          4.64711        6.81709       -2.06402
H          3.90803        6.39086       -3.62484
C         -0.01913        1.12495       -4.85540
H          0.14722        3.17838       -4.21143
C          0.35246       -0.21154       -4.58956
C         -0.85598        1.39537       -6.06901
H          0.03141       -0.99074       -5.27862
O         -1.16505        2.75100       -6.20252
O         -1.24438        0.52682       -6.88282
C         -1.99612        3.12569       -7.36794
H         -1.48597        2.85967       -8.30390
H         -2.96723        2.61382       -7.32565
H         -2.12014        4.21055       -7.28253
C          1.54031       -1.99872       -3.27584
H          2.55366       -2.15424       -3.67618
H          0.85888       -2.66314       -3.82033
H          1.53969       -2.31929       -2.23060
C          2.76617       -1.19721        2.06215
C          2.56398       -2.57373        2.37808
C          3.01553       -0.21078        3.06662
C          2.23567       -3.65576        1.35286
C          2.62173       -2.94015        3.74318
C          3.29751       -4.78853        1.24969
H          1.27232       -4.11381        1.63600
H          2.08575       -3.22073        0.35966
C          2.91152       -5.86309        0.20514
H          4.27245       -4.35273        0.98357
H          3.42474       -5.27147        2.23233
C          3.94699       -7.00430        0.09923
H          2.79456       -5.38536       -0.78335
H          1.92511       -6.28791        0.46272
H          4.93674       -6.61927       -0.19337
H          3.64092       -7.74736       -0.65375
H          4.06266       -7.53033        1.06042
C          2.87568       -1.99420        4.75704
H          2.45740       -3.97679        4.03153
C          3.06697       -0.63710        4.41080
C          2.92103       -2.47742        6.17587
H          3.25538        0.09060        5.19587
O          3.18601       -1.44304        7.07388
O          2.74532       -3.66402        6.53503
C          3.25800       -1.81267        8.50568
H          2.30239       -2.23983        8.83896
H          4.06086       -2.54385        8.67145
H          3.47018       -0.87162        9.02402
C          3.21210        1.26176        2.74893
H          3.25327        1.84773        3.67546
H          2.39392        1.66524        2.13971
H          4.15078        1.43607        2.20508
