103
/cluster/projects/nn2506k/marcof/RuC_BondLength/evolutionary_desing/RUN28052021044732/Gen009/M00000080_I_DFT.out	Energy: -1077244.4245723
Ru        -0.21053       -0.32909       -0.19851
C         -0.52414       -0.97674        1.46925
C          1.73027       -0.11363       -0.24868
Cl        -0.30158       -2.38894       -1.46700
Cl        -1.07424        1.90237        0.14163
H          0.18517       -1.11084        2.29012
H         -1.58112       -1.24845        1.67739
N          2.38157        0.49926       -1.32806
N          2.71130       -0.58243        0.61499
C          3.91303        0.20496       -1.31774
C          1.74504        1.44016       -2.25703
C          4.07190       -0.15013        0.18409
C          4.75857        1.43628       -1.78505
C          4.17916       -1.03939       -2.23712
H          4.78604       -0.96312        0.34868
H          4.39138        0.71118        0.78866
C          6.16294        1.63029       -1.14744
H          4.19366        2.35363       -1.60397
H          4.87467        1.36940       -2.87769
C          6.94803        2.78139       -1.82569
H          6.06047        1.86593       -0.07534
H          6.76065        0.71012       -1.20790
C          8.32999        3.04699       -1.18159
H          7.08477        2.54676       -2.89630
H          6.34528        3.70628       -1.78769
C          9.12176        4.18914       -1.86359
H          8.93209        2.12115       -1.21348
H          8.19386        3.29056       -0.11261
C         10.50051        4.45326       -1.21839
H          8.52208        5.11594       -1.83237
H          9.26055        3.94734       -2.93215
H         11.14149        3.55818       -1.26528
H         11.03045        5.27103       -1.73199
H         10.39786        4.73545       -0.15818
C          5.61918       -1.61178       -2.29668
H          3.89122       -0.75845       -3.25691
H          3.49915       -1.84505       -1.93020
C          5.68197       -2.92570       -3.11720
H          6.30133       -0.88047       -2.75709
H          6.00777       -1.81386       -1.28460
C          7.10879       -3.51449       -3.22935
H          5.01388       -3.67481       -2.65681
H          5.28457       -2.74099       -4.13102
C          7.17320       -4.82975       -4.04325
H          7.50939       -3.69728       -2.21587
H          7.77684       -2.76824       -3.69587
C          8.59779       -5.41763       -4.15259
H          6.77543       -4.64915       -5.05744
H          6.50571       -5.57709       -3.57923
H          9.01318       -5.64591       -3.15775
H          8.59947       -6.35099       -4.73758
H          9.28438       -4.71182       -4.64731
C          1.64723        2.81697       -1.87320
C          1.27238        1.00427       -3.53339
C          2.12196        3.30946       -0.51284
C          1.04664        3.74945       -2.76558
H          2.53741        2.50415        0.09133
H          1.28356        3.73785        0.05152
H          2.89388        4.08953       -0.60723
C          0.89823        5.21379       -2.36316
C          0.54935        3.31779       -4.02818
H          1.59145        5.50367       -1.56793
H         -0.11994        5.41865       -1.98951
H          1.07739        5.88907       -3.21048
C         -0.16453        4.30894       -4.94317
C          0.69601        1.95945       -4.42396
H          0.54122        4.83041       -5.61384
H         -0.69423        5.07844       -4.36977
H         -0.90935        3.81420       -5.57658
C          0.21791        1.51726       -5.80476
H          0.73846        0.61976       -6.15404
H          0.38177        2.29794       -6.55856
H         -0.86119        1.28342       -5.80500
C          1.32104       -0.45282       -3.96592
H          1.58075       -1.11718       -3.14578
H          2.04402       -0.60926       -4.78342
H          0.34113       -0.78253       -4.33537
C          2.62069       -1.25870        1.90075
C          2.69500       -2.68119        1.95038
C          2.58955       -0.47226        3.09183
C          2.73177       -3.50989        0.67572
C          2.71511       -3.32561        3.22261
H          2.52072       -2.90434       -0.20403
H          1.97414       -4.30504        0.69672
H          3.71271       -3.99545        0.53838
C          2.80907       -4.84640        3.30677
C          2.65015       -2.55467        4.41953
H          1.82124       -5.30358        3.49048
H          3.47000       -5.16619        4.12354
H          3.19857       -5.28794        2.38450
C          2.60648       -3.25592        5.77424
C          2.62088       -1.13065        4.35540
H          2.11383       -4.23307        5.71019
H          2.05867       -2.66836        6.52001
H          3.62002       -3.42903        6.17707
C          2.62293       -0.31284        5.64424
H          3.28796       -0.75317        6.39904
H          1.61610       -0.25557        6.09345
H          2.95977        0.71558        5.48020
C          2.48440        1.04552        3.02769
H          1.69015        1.41695        3.69041
H          2.24173        1.39222        2.02328
H          3.42183        1.53377        3.34233
