83
/cluster/projects/nn2506k/marcof/RuC_BondLength/evolutionary_desing/RUN28052021044948/Gen009/M00000082_I_DFT.out	Energy: -928584.9768065
Ru         0.15494        0.51772        0.20732
C         -0.27431       -0.11100        1.85606
C          2.03767        0.05147       -0.05360
Cl        -0.89992       -1.20858       -1.11562
Cl         0.39857        2.85954        0.74841
H          0.34320       -0.64786        2.57897
H         -1.32697        0.08599        2.15475
N          2.68258        0.36727       -1.24710
N          2.97101       -0.57662        0.76654
C          4.07429       -0.14104       -1.29831
C          2.11362        1.00981       -2.42457
C          4.36350       -0.64714        0.14350
H          4.75825        0.66014       -1.59990
H          4.15348       -0.95024       -2.03917
C          5.03542       -2.05174        0.15335
C          5.44789        0.21324        0.86717
C          6.52900       -1.77316       -0.16734
H          4.57250       -2.74664       -0.55807
H          4.94451       -2.48731        1.15660
C          6.79934       -0.30257        0.30313
H          7.18375       -2.49575        0.34079
H          6.72382       -1.87339       -1.24582
H          7.13890        0.31590       -0.54107
H          7.58862       -0.25327        1.06708
H          5.39879        0.01675        1.94480
H          5.30262        1.29033        0.71408
C          2.18050        2.43201       -2.56804
C          1.57532        0.19793       -3.46990
C          2.93983        3.33399       -1.59925
C          1.54397        3.01426       -3.69014
C          4.37896        3.74708       -2.05361
H          2.35598        4.24990       -1.42631
H          3.01668        2.84586       -0.62334
C          4.47058        4.80206       -3.18264
H          4.89251        4.15375       -1.16377
H          4.94938        2.85306       -2.35838
C          5.92384        5.23535       -3.48204
H          3.87946        5.68978       -2.89654
H          4.01748        4.40628       -4.10452
H          6.40195        5.67667       -2.59258
H          5.95596        5.98723       -4.28648
H          6.53882        4.37845       -3.80213
C          0.91777        2.24417       -4.69367
H          1.53479        4.10132       -3.77411
C          0.19082        2.90612       -5.85220
C          0.98026        0.83819       -4.58035
H         -0.86724        3.08531       -5.59620
H          0.20485        2.27759       -6.75433
H          0.63273        3.88007       -6.10775
H          0.54316        0.21837       -5.36538
C          1.67074       -1.31947       -3.47404
H          2.61066       -1.64171       -3.95569
H          0.84343       -1.75802       -4.04580
H          1.62980       -1.74728       -2.46955
C          2.73684       -1.11544        2.09535
C          2.92963       -0.28804        3.24406
C          2.32826       -2.48222        2.24786
C          3.19734        1.20908        3.17590
C          2.79027       -0.86786        4.52874
H          2.40701        1.75278        3.71455
H          3.20647        1.59514        2.15598
H          4.15362        1.46568        3.65808
C          2.44058       -2.22132        4.71200
H          2.93941       -0.23087        5.40308
C          2.32287       -2.82639        6.10131
C          2.19123       -2.99730        3.55777
H          2.20739       -2.05295        6.87322
H          3.22267       -3.41240        6.35443
H          1.46282       -3.50868        6.17381
H          1.86475       -4.02972        3.68382
C          1.92523       -3.36193        1.06194
C          2.50448       -4.80246        1.04258
H          0.82395       -3.43339        1.05734
H          2.18161       -2.86330        0.12226
C          2.06502       -5.59729       -0.21161
H          3.60570       -4.76547        1.08436
H          2.18059       -5.35765        1.93761
C          2.61407       -7.04074       -0.24486
H          2.39332       -5.06155       -1.11992
H          0.96241       -5.62445       -0.25638
H          3.71610       -7.05136       -0.23682
H          2.28098       -7.57100       -1.15091
H          2.26830       -7.61991        0.62651
