110
/cluster/projects/nn2506k/marcof/RuC_BondLength/evolutionary_desing/RUN28052021044732/Gen000/M00000015_I_DFT.out	Energy: -1179916.4559820
Ru         0.12641        0.52738        0.15557
C         -0.10090       -0.16024        1.82047
C          1.89427       -0.09465       -0.43431
Cl        -1.36648       -1.00280       -0.98753
Cl         0.69350        2.79425        0.78797
H          0.55697       -0.81632        2.39386
H         -1.05945        0.12762        2.30456
N          2.38776        0.28511       -1.68138
N          2.85089       -0.87997        0.19058
C          3.77542       -0.24938       -1.96393
C          1.82626        1.31973       -2.56032
C          4.20631       -0.93287       -0.58966
C          3.89229       -1.04934       -3.25010
H          4.41386        0.62735       -2.10066
C          5.25723       -0.03414        0.16824
C          4.67946       -2.42006       -0.65381
C          6.50578        0.50611       -0.58529
H          5.60195       -0.60924        1.04021
H          4.72812        0.83858        0.56363
C          7.49808        1.19209        0.38973
H          7.03293       -0.28770       -1.12660
H          6.20663        1.25041       -1.33977
C          8.72561        1.81232       -0.31994
H          6.97004        1.98024        0.95549
H          7.84461        0.45447        1.13552
C          9.72611        2.48578        0.65053
H          8.38153        2.55830       -1.05846
H          9.25076        1.02826       -0.89435
C         10.94906        3.10746       -0.06006
H         10.07395        1.74142        1.38858
H          9.20260        3.26969        1.22577
H         10.64099        3.88404       -0.77846
H         11.63508        3.57513        0.66383
H         11.51824        2.34509       -0.61599
C          6.08119       -2.76348       -1.21995
H          3.94049       -3.00081       -1.21144
H          4.65095       -2.79712        0.37790
C          6.27756       -4.29649       -1.33817
H          6.23188       -2.31022       -2.20910
H          6.86509       -2.36788       -0.55672
C          7.68811       -4.69775       -1.83244
H          6.08931       -4.76675       -0.35605
H          5.52170       -4.70756       -2.03030
C          7.88671       -6.22734       -1.96360
H          8.44725       -4.29370       -1.13866
H          7.87924       -4.22312       -2.81139
C          9.29646       -6.62603       -2.45427
H          7.13126       -6.63293       -2.65965
H          7.69351       -6.70419       -0.98628
H         10.07587       -6.26956       -1.76162
H          9.39605       -7.72015       -2.53502
H          9.50987       -6.19664       -3.44638
C          3.32261       -2.23715       -3.67957
S          4.97209       -0.38312       -4.56060
C          3.71396       -2.64943       -5.00108
H          2.61677       -2.80748       -3.08335
C          4.59517       -1.77733       -5.61387
H          3.34913       -3.55813       -5.47691
H          5.04728       -1.83743       -6.59808
C          2.31063        2.65929       -2.44071
C          0.88846        0.96762       -3.57684
C          3.36232        3.04763       -1.41321
C          1.78497        3.66762       -3.29634
H          3.49977        2.27549       -0.65814
H          3.06609        3.95462       -0.87412
H          4.33586        3.25014       -1.89186
C          2.30499        5.09764       -3.18297
C          0.76656        3.34848       -4.23963
H          1.75009        5.66924       -2.41855
H          2.21614        5.64245       -4.13001
H          3.36309        5.12502       -2.89672
C          0.10814        4.45838       -5.05504
C          0.35806        1.99619       -4.41258
H          0.65905        4.66898       -5.98862
H          0.05669        5.39609       -4.48885
H         -0.91914        4.19924       -5.33477
C         -0.65174        1.63875       -5.49977
H         -0.52494        0.61052       -5.85412
H         -0.55868        2.29389       -6.37468
H         -1.68894        1.72510       -5.13117
C          0.44606       -0.46551       -3.81031
H          0.79026       -1.12966       -3.02114
H          0.83844       -0.83879       -4.76885
H         -0.64645       -0.54699       -3.83730
C          2.65406       -1.67269        1.40212
C          2.08524       -2.98097        1.29767
C          3.05922       -1.15095        2.66984
C          1.49633       -3.48565       -0.01274
C          2.02264       -3.80948        2.45849
H          1.53056       -2.72753       -0.79340
H          0.43675       -3.74674        0.11614
H          2.01706       -4.38438       -0.37779
C          1.43228       -5.21549        2.37161
C          2.52019       -3.33247        3.70620
H          1.18525       -5.50577        1.34789
H          0.50472       -5.29951        2.96148
H          2.13236       -5.96969        2.76197
C          2.47853       -4.21323        4.95141
C          3.03161       -2.00683        3.80982
H          3.48550       -4.57757        5.21851
H          1.84062       -5.09205        4.82390
H          2.09920       -3.66051        5.82236
C          3.52825       -1.49270        5.15785
H          4.23735       -0.66543        5.04835
H          4.03600       -2.28161        5.72730
H          2.69770       -1.12619        5.78659
C          3.39445        0.32263        2.86559
H          4.46497        0.49610        3.05200
H          2.85116        0.71950        3.73484
H          3.09280        0.92356        2.00725
