85
/cluster/projects/nn2506k/marcof/RuC_BondLength/evolutionary_desing/RUN28052021044732/Gen032/M00000200_I_DFT.out	Energy: -929329.8512038
Ru        -0.11750        0.55218        0.16247
C         -0.52292       -0.15049        1.78688
C          1.78143        0.16319       -0.12873
Cl        -1.22328       -1.10986       -1.20232
Cl         0.12897        2.86414        0.84799
H          0.10605       -0.71969        2.47433
H         -1.57025        0.03263        2.11166
N          2.39765        0.49933       -1.33683
N          2.75519       -0.34406        0.72137
C          3.92831        0.47480       -1.22205
C          1.69872        0.80197       -2.59153
C          4.12063       -0.50057        0.02418
C          4.45944        1.91128       -0.94316
C          4.61120       -0.01552       -2.52045
C          5.29720       -0.10453        0.95115
C          4.35847       -1.98512       -0.37493
H          5.21611        0.90919        1.34571
H          6.24064       -0.18191        0.39227
H          5.36058       -0.79785        1.79920
H          3.57840       -2.38237       -1.02772
H          4.40447       -2.60503        0.52713
H          5.32393       -2.08608       -0.88830
H          3.98406        2.37130       -0.07085
H          4.27222        2.54891       -1.81161
H          5.54519        1.89328       -0.78188
H          4.29982       -1.01623       -2.82402
H          5.70131       -0.02266       -2.37845
H          4.39136        0.67368       -3.34570
C          1.41542        2.14853       -2.99228
C          1.33891       -0.27992       -3.46351
C          1.74568        3.39779       -2.18942
C          0.77739        2.36814       -4.23808
H          0.87970        4.07353       -2.17680
H          2.57813        3.94938       -2.65670
H          1.99826        3.19266       -1.15137
C          0.41259        1.32290       -5.10813
H          0.55891        3.39918       -4.52491
C         -0.32106        1.59597       -6.41414
C          0.70900        0.00816       -4.69386
C         -1.87037        1.60114       -6.25473
H         -0.00645        2.57021       -6.82340
H         -0.04770        0.83384       -7.16261
C         -2.61587        1.87247       -7.58301
H         -2.19446        0.63175       -5.84083
H         -2.15407        2.36421       -5.51056
C         -4.15313        1.88064       -7.42818
H         -2.32871        1.10686       -8.32579
H         -2.28602        2.84266       -7.99564
H         -4.52082        0.91316       -7.05082
H         -4.64954        2.07548       -8.39220
H         -4.47831        2.65941       -6.72001
H          0.42842       -0.82807       -5.33760
C          1.58662       -1.74817       -3.15586
H          0.72846       -2.34765       -3.48413
H          1.71695       -1.93685       -2.09092
H          2.47374       -2.12190       -3.69341
C          2.57472       -0.81918        2.08598
C          2.18514       -2.17521        2.33725
C          2.82178        0.06195        3.18576
C          1.70781       -3.14104        1.25980
C          2.15705       -2.63711        3.67480
H          0.78973       -3.64482        1.59583
H          2.45001       -3.92939        1.06088
H          1.47330       -2.64269        0.31809
C          2.47112       -1.80921        4.77414
H          1.85681       -3.67148        3.85670
C          2.47699       -2.35046        6.19786
C          2.77022       -0.45770        4.50103
C          3.86349       -2.90383        6.64099
H          2.17602       -1.55568        6.89984
H          1.73095       -3.15626        6.29396
C          3.86383       -3.45085        8.08847
H          4.17295       -3.70318        5.94630
H          4.61795       -2.10391        6.55067
C          5.23719       -4.00110        8.53335
H          3.10556       -4.24895        8.17672
H          3.55070       -2.64953        8.78094
H          5.56442       -4.82996        7.88533
H          5.19738       -4.38024        9.56676
H          6.01264       -3.21937        8.49351
H          2.95718        0.22497        5.33293
C          3.08903        1.55180        3.03394
H          2.42773        2.11838        3.70534
H          2.89917        1.91442        2.02336
H          4.12455        1.80251        3.31466
