85
/cluster/projects/nn2506k/marcof/RuC_BondLength/evolutionary_desing/RUN28052021044732/Gen032/M00000202_I_DFT.out	Energy: -929325.5241181
Ru         0.07115        0.44570        0.19892
C         -0.32832       -0.24523        1.82974
C          1.97987        0.10168       -0.07894
Cl        -0.99777       -1.24728       -1.15601
Cl         0.27340        2.76935        0.85985
H          0.30988       -0.78664        2.53094
H         -1.38140       -0.08142        2.14616
N          2.59568        0.46877       -1.28036
N          2.96031       -0.38087        0.77844
C          4.12458        0.51769       -1.13423
C          1.89350        0.69565       -2.55291
C          4.34188       -0.46923        0.09789
C          4.57456        1.97154       -0.81049
C          4.86009        0.09348       -2.42675
C          5.48898       -0.04175        1.04764
C          4.65059       -1.93328       -0.32180
H          5.36172        0.95938        1.46044
H          6.44129       -0.06895        0.49926
H          5.57118       -0.74864        1.88288
H          3.91538       -2.34444       -1.01562
H          4.68444       -2.56986        0.56813
H          5.63920       -1.98558       -0.79724
H          4.05183        2.38661        0.05679
H          4.38260        2.61655       -1.67039
H          5.65473        2.00459       -0.61755
H          4.61967       -0.91914       -2.75419
H          5.94570        0.15213       -2.26371
H          4.61240        0.78174       -3.24478
C          1.52570        2.00659       -3.00515
C          1.59162       -0.44121       -3.37919
C          1.75568        3.31252       -2.24515
C          0.85025        2.12816       -4.24706
C          2.61984        4.36548       -2.99846
H          0.77191        3.76707       -2.04901
H          2.18083        3.12315       -1.25980
C          2.81299        5.66713       -2.18261
H          3.60678        3.94133       -3.25043
H          2.14816        4.61855       -3.96167
C          3.64607        6.73641       -2.92378
H          3.29696        5.42985       -1.21938
H          1.82304        6.08519       -1.93014
H          4.65651        6.36512       -3.16045
H          3.75892        7.64575       -2.31239
H          3.16779        7.02925       -3.87243
C          0.54650        1.03025       -5.07062
H          0.53975        3.12399       -4.56539
C         -0.21222        1.19899       -6.37581
C          0.93771       -0.24516       -4.61372
H         -1.27808        0.94768       -6.24367
H          0.18094        0.53646       -7.16160
H         -0.16145        2.23258       -6.74571
H          0.70210       -1.12237       -5.21925
C          1.91809       -1.87882       -3.00786
H          1.19033       -2.55743       -3.46956
H          1.87154       -2.04806       -1.93216
H          2.91515       -2.17441       -3.37158
C          2.77974       -0.85861        2.14459
C          2.42275       -2.22600        2.40505
C          2.98402        0.04159        3.23794
C          1.94122       -3.19917        1.32432
C          2.37495       -2.66314        3.75082
C          2.56772       -4.62054        1.33960
H          0.84997       -3.31226        1.44686
H          2.07092       -2.75997        0.33353
C          2.01099       -5.52497        0.21257
H          3.66399       -4.55279        1.24454
H          2.37443       -5.11199        2.30658
C          2.60061       -6.95263        0.22765
H          2.21215       -5.05857       -0.76762
H          0.91221       -5.58246        0.30252
H          3.69558       -6.93590        0.10371
H          2.18113       -7.56318       -0.58737
H          2.37981       -7.46665        1.17706
C          2.64827       -1.81303        4.84352
H          2.08951       -3.69551        3.95314
C          2.62828       -2.33458        6.27068
C          2.92373       -0.46029        4.55999
H          2.41729       -1.53339        6.99293
H          3.60317       -2.77325        6.54385
H          1.87086       -3.12062        6.40489
H          3.08131        0.23762        5.38489
C          3.20771        1.53814        3.07932
H          2.53250        2.08656        3.75180
H          3.00227        1.89217        2.06922
H          4.23599        1.82069        3.35598
