97
/cluster/projects/nn2506k/marcof/RuC_BondLength/evolutionary_desing/RUN28052021044732/Gen028/M00000180_I_DFT.out	Energy: -1215166.8455649
Ru        -0.01975        0.90400        0.30253
C         -0.43898        0.29384        1.96026
C          1.82746        0.34472       -0.07581
Cl        -1.34002       -0.68298       -0.95723
Cl         0.45115        3.19900        0.93028
H          0.14143       -0.31264        2.65749
H         -1.45427        0.59489        2.29869
N          2.39500        0.58973       -1.32879
N          2.80564       -0.19726        0.74398
C          3.94922        0.51570       -1.27387
C          1.60249        0.84330       -2.54269
C          4.13087       -0.50409       -0.02725
C          4.44989        1.99043       -1.00394
C          4.59135       -0.03163       -2.58757
C          5.41261       -0.18078        0.80880
C          4.10919       -2.04004       -0.38289
C          5.88453       -1.13276        1.94392
H          5.31608        0.82196        1.23145
H          6.23645       -0.12853        0.08310
C          7.20809       -0.63302        2.57169
H          6.04635       -2.15027        1.56479
H          5.13100       -1.21294        2.73400
H          7.09413        0.36874        3.01559
H          7.53995       -1.31273        3.37168
H          8.01665       -0.57747        1.82463
C          5.33712       -2.74857       -1.03215
H          3.22944       -2.25289       -0.99549
H          3.93992       -2.54381        0.57441
C          5.26248       -4.28300       -0.83990
H          6.28326       -2.38665       -0.60641
H          5.38829       -2.54440       -2.10835
H          4.33381       -4.69627       -1.26493
H          6.10724       -4.78208       -1.34016
H          5.29434       -4.56067        0.22560
C          5.96143        2.37189       -1.03023
H          4.01364        2.34707       -0.06298
H          3.98121        2.58542       -1.78992
C          6.14633        3.89758       -1.21998
H          6.49140        1.85016       -1.84015
H          6.46386        2.08500       -0.09903
H          5.63285        4.46472       -0.42745
H          7.21302        4.16992       -1.18710
H          5.74413        4.23909       -2.18675
C          4.65041        0.85342       -3.86358
H          4.10309       -0.97049       -2.85987
H          5.62905       -0.28993       -2.33252
C          5.38960        0.12451       -5.01103
H          5.16956        1.80033       -3.66357
H          3.64359        1.11470       -4.20681
H          4.88002       -0.81163       -5.28984
H          5.43145        0.75810       -5.91040
H          6.42584       -0.12750       -4.73209
C          1.29295        2.17354       -2.98522
C          1.14285       -0.28043       -3.31556
C          1.68178        3.46739       -2.28722
C          0.56742        2.33967       -4.18852
H          0.82430        4.15370       -2.27928
H          2.49092        3.97403       -2.83816
H          1.98634        3.33505       -1.25192
C          0.14446        1.24837       -4.96801
H          0.32570        3.34653       -4.52730
C          0.43074       -0.05407       -4.51142
C         -0.60822        1.52126       -6.23132
H          0.07666       -0.90586       -5.08664
O         -0.98333        0.34333       -6.88579
O         -0.88252        2.65918       -6.67793
C         -1.75310        0.50437       -8.13794
H         -2.69512        1.03500       -7.94278
H         -1.16850        1.06572       -8.87993
H         -1.94355       -0.51866       -8.48013
C          1.35057       -1.73408       -2.92532
H          0.58362       -2.35795       -3.40003
H          1.26116       -1.88488       -1.84914
H          2.32852       -2.11367       -3.25767
C          2.60856       -0.57138        2.13895
C          2.08412       -1.86452        2.47711
C          2.94843        0.35282        3.18100
C          1.46936       -2.83735        1.47904
C          2.04469       -2.25101        3.83642
H          0.48331       -3.15990        1.84416
H          2.08083       -3.74532        1.36624
H          1.31655       -2.39685        0.49453
C          2.46067       -1.38174        4.86601
H          1.66305       -3.23659        4.09508
C          2.87409       -0.07721        4.52400
C          2.44270       -1.76793        6.31144
H          3.13969        0.61268        5.32440
O          1.98346       -3.07513        6.50158
O          2.79481       -1.02937        7.25988
C          1.92323       -3.55442        7.89987
H          2.92302       -3.53692        8.35508
H          1.24467       -2.92522        8.49202
H          1.54340       -4.57912        7.82571
C          3.36197        1.79557        2.94319
H          2.83407        2.45178        3.64899
H          3.11555        2.14433        1.94120
H          4.44001        1.93746        3.11866
