74
/cluster/projects/nn2506k/marcof/RuC_BondLength/evolutionary_desing/RUN28052021044948/Gen030/M00000193_I_DFT.out	Energy: -956489.3230821
Ru        -0.17188       -0.13156        0.15060
C         -0.15155       -0.01450        1.96492
C          1.70889        0.21892       -0.27747
Cl        -0.41798       -2.52409       -0.06684
Cl        -1.24545        1.93030       -0.49364
H          0.71464        0.12646        2.61649
H         -1.13770       -0.12692        2.46204
N          2.68914        0.90385        0.43721
N          2.29874       -0.21338       -1.47517
C          4.01346        0.90236       -0.26121
C          2.65652        1.47819        1.77362
C          3.76728        0.13596       -1.57720
H          4.76881        0.40558        0.35863
H          4.34206        1.93016       -0.44862
C          4.14392        0.90681       -2.84856
H          4.31511       -0.81438       -1.59497
C          4.66165        0.21698       -3.97091
N          3.97943        2.26298       -2.85043
C          5.01098        0.94291       -5.12802
H          4.78335       -0.86440       -3.93715
C          4.83625        2.34241       -5.13430
H          5.41030        0.42817       -6.00305
C          4.31952        2.95433       -3.97158
H          5.09401        2.94422       -6.00602
H          4.17135        4.03535       -3.92856
C          2.13435        2.80122        2.05217
C          3.21692        0.69914        2.83650
N          1.52217        3.65419        1.12190
C          2.19524        3.24927        3.41315
C          0.53182        4.64479        1.57143
C          1.97826        3.88709       -0.25531
H         -0.06990        4.24755        2.39801
H         -0.15280        4.85067        0.73754
H          0.98652        5.60532        1.88795
H          2.39860        4.90809       -0.34708
H          1.13784        3.79580       -0.95809
H          2.74812        3.18792       -0.56244
C          2.72899        2.48324        4.45973
H          1.83969        4.25138        3.63978
C          2.76190        3.01577        5.88384
C          3.24277        1.20264        4.15451
H          3.76415        2.91236        6.32845
H          2.06324        2.45951        6.53085
H          2.48089        4.07682        5.92898
H          3.66092        0.58310        4.94924
C          3.75684       -0.70872        2.61790
H          3.70641       -1.28221        3.55313
H          4.81546       -0.69860        2.30879
H          3.19327       -1.25893        1.85880
C          1.70992       -1.04422       -2.51011
C          2.16678       -2.40284       -2.69866
C          0.79162       -0.47952       -3.44147
N          3.24319       -2.96373       -1.92820
C          1.59644       -3.16546       -3.74597
C          3.05561       -3.22189       -0.48224
C          4.07486       -4.00362       -2.56384
H          2.60985       -4.21927       -0.30336
H          2.37888       -2.49131       -0.04545
H          4.02982       -3.18298        0.03189
H          5.02786       -4.07294       -2.01575
H          4.29553       -3.73882       -3.60615
H          3.61558       -5.01360       -2.55108
C          0.61286       -2.64677       -4.61497
H          1.90067       -4.20390       -3.86509
C         -0.03188       -3.52774       -5.67253
C          0.24108       -1.29954       -4.45807
H         -0.84071       -4.13530       -5.23262
H          0.69155       -4.22583       -6.12008
H         -0.47531       -2.93100       -6.48203
H         -0.47859       -0.85515       -5.14792
C          0.42184        0.99494       -3.46888
H          0.58079        1.39102       -4.48398
H          1.00912        1.59674       -2.77381
H         -0.63597        1.14909       -3.21880
