77
/cluster/projects/nn2506k/marcof/RuC_BondLength/evolutionary_desing/RUN28052021044948/Gen014/M00000108_I_DFT.out	Energy: -1270867.2641935
Ru         0.20574        0.56771        0.03996
C         -0.15857        0.23013        1.78870
C          2.05132       -0.02430       -0.22069
Cl        -1.03001       -1.21680       -0.98095
Cl         0.48212        2.95308        0.06325
H          0.46503       -0.22839        2.55861
H         -1.18216        0.52490        2.10200
N          2.67685        0.13209       -1.45904
N          2.97565       -0.66168        0.60731
C          4.00078       -0.53511       -1.53686
C          2.14738        0.82283       -2.61415
C          4.32893       -0.92570       -0.06781
H          4.74733        0.14582       -1.95939
H          3.93558       -1.42125       -2.18361
C          4.87809       -2.38052        0.03495
C          5.52423       -0.10731        0.51767
C          6.36114       -2.25872       -0.40828
H          4.31186       -3.09491       -0.57155
H          4.83775       -2.71889        1.07872
C          6.78913       -0.79031       -0.06958
H          6.98698       -3.00238        0.10485
H          6.46288       -2.45076       -1.48694
H          7.13692       -0.26857       -0.97313
H          7.61942       -0.75950        0.65022
H          5.52789       -0.21151        1.60966
H          5.46431        0.95976        0.27919
C          2.43721        2.20829       -2.83154
C          1.38563        0.10585       -3.58604
C          3.49962        2.97847       -2.06957
C          1.85401        2.90009       -3.91284
F          3.66201        2.67968       -0.70827
F          3.33507        4.37317       -2.14941
F          4.79528        2.71642       -2.65462
C          1.00858        2.20308       -4.78800
H          2.05238        3.95737       -4.06247
C          0.79861        0.82748       -4.65670
Cl         0.21356        3.10367       -6.14232
H          0.17583        0.29926       -5.37662
C          1.21824       -1.40775       -3.58030
C          2.07023       -2.11168       -4.67972
H          1.46738       -1.82495       -2.60096
H          0.15998       -1.65164       -3.74707
C          1.88942       -3.64894       -4.66638
H          1.79146       -1.72297       -5.67341
H          3.13783       -1.86708       -4.54384
C          2.72171       -4.36918       -5.75002
H          0.82132       -3.88930       -4.80590
H          2.16294       -4.04202       -3.67175
H          2.44305       -4.03007       -6.76055
H          2.56475       -5.45829       -5.70845
H          3.79989       -4.18185       -5.62009
C          2.77352       -1.04377        1.98521
C          3.10206       -0.12359        3.03747
C          2.31666       -2.35544        2.33151
C          3.50192        1.33294        2.80136
C          3.04692       -0.57180        4.38050
C          2.61396        2.38357        3.53078
H          4.54098        1.47082        3.14687
H          3.48949        1.56094        1.73388
C          3.11914        3.82831        3.29898
H          1.58047        2.30434        3.16527
H          2.59041        2.18420        4.61498
C          2.23624        4.89103        3.98892
H          3.14785        4.03193        2.21654
H          4.15700        3.91851        3.66794
H          1.20617        4.85878        3.60136
H          2.62788        5.90441        3.80931
H          2.19421        4.73664        5.07951
C          2.63989       -1.87428        4.68758
H          3.32407        0.10901        5.18230
C          2.24951       -2.76654        3.68354
Cl         2.59774       -2.41404        6.41535
H          1.90133       -3.76444        3.93819
C          1.83873       -3.43469        1.37094
F          1.80758       -3.11992        0.01048
F          0.53200       -3.86856        1.70710
F          2.65852       -4.60682        1.47645
