77
/cluster/projects/nn2506k/marcof/RuC_BondLength/evolutionary_desing/RUN28052021121055/Gen006/M00000077_I_DFT.out	Energy: -926329.9022777
Ru        -0.20252       -0.16877       -0.20974
C         -0.53086       -0.99213        1.37555
C          1.74026       -0.23227       -0.39146
Cl        -0.80971       -1.94683       -1.72706
Cl        -0.49329        2.11742        0.51696
H          0.18196       -1.39967        2.09596
H         -1.60744       -1.06923        1.64077
N          2.38079        0.41369       -1.44681
N          2.72670       -0.85140        0.37287
C          3.85261        0.21631       -1.44249
C          1.78112        1.16218       -2.54487
C          4.13063       -0.49560       -0.09522
H          4.15834       -0.38584       -2.30807
H          4.37099        1.18221       -1.50807
C          5.13565       -1.64742       -0.17437
H          4.52985        0.23128        0.62719
C          6.20992       -1.68423        0.74715
C          5.06844       -2.65665       -1.16709
C          7.19062       -2.69665        0.68448
H          6.28166       -0.91799        1.52172
C          7.11212       -3.69459       -0.30927
H          8.01026       -2.70400        1.40505
C          6.04468       -3.67009       -1.23405
H          7.86967       -4.47834       -0.36401
H          5.97354       -4.43863       -2.00583
H          4.25023       -2.66609       -1.88735
C          1.69444        2.58190       -2.44040
C          1.42342        0.47798       -3.74399
C          2.26535        3.32257       -1.23997
C          1.08322        3.30807       -3.50210
H          2.60575        2.63625       -0.46247
H          1.51565        3.97394       -0.77521
H          3.11908        3.95285       -1.54141
C          0.94168        4.82407       -3.40834
C          0.58822        2.61872       -4.64746
H          1.07693        5.30819       -4.38446
H          1.67326        5.26575       -2.72421
H         -0.05774        5.10915       -3.03626
C         -0.17471        3.38493       -5.72419
C          0.81457        1.21971       -4.79721
H         -0.71804        4.23888       -5.30313
H         -0.91431        2.74886       -6.22454
H          0.49863        3.77961       -6.50552
C          0.39584        0.51410       -6.08347
H          0.97740       -0.39630       -6.26203
H          0.52460        1.15779       -6.96311
H         -0.66608        0.21432       -6.04852
C          1.71739       -1.00365       -3.92956
H          0.82637       -1.55630       -4.24905
H          2.05418       -1.47351       -3.00430
H          2.49672       -1.14945       -4.69698
C          2.60047       -1.49551        1.67139
C          2.39288       -2.90338        1.73840
C          2.77307       -0.70620        2.84771
C          2.12683       -3.71903        0.48204
C          2.38642       -3.53556        3.01733
H          2.03030       -3.08453       -0.39872
H          1.18735       -4.28325        0.57166
H          2.93201       -4.44491        0.29402
C          2.19029       -5.04540        3.12390
C          2.56763       -2.76231        4.20115
H          2.91432       -5.49601        3.81754
H          2.31083       -5.54806        2.16048
H          1.18322       -5.29917        3.49703
C          2.52533       -3.43603        5.56966
C          2.77789       -1.35457        4.11626
H          1.94144       -4.36246        5.55472
H          2.07653       -2.78427        6.32945
H          3.53836       -3.69611        5.92409
C          3.00146       -0.54461        5.39029
H          3.48949        0.41471        5.19090
H          3.63422       -1.08660        6.10575
H          2.04997       -0.32240        5.90416
C          2.89723        0.81098        2.76934
H          2.20879        1.29603        3.47505
H          2.64120        1.19371        1.77987
H          3.91362        1.15695        3.02184
