81
/cluster/projects/nn2506k/marcof/RuC_BondLength/evolutionary_desing/RUN28052021121055/Gen014/M00000116_I_DFT.out	Energy: -986778.5749806
Ru        -0.17209        0.16624        0.01653
C         -0.54127       -0.87157        1.46068
C          1.76370        0.03511       -0.20062
Cl        -0.96628       -1.33239       -1.70512
Cl        -0.28744        2.32262        1.10741
H          0.14237       -1.45453        2.08142
H         -1.61676       -0.90365        1.73911
N          2.41133        0.69376       -1.25081
N          2.73540       -0.60446        0.56083
C          3.90128        0.42404       -1.27438
C          1.76850        1.24999       -2.44316
C          4.14205       -0.24784        0.11408
C          4.79892        1.61347       -1.52923
H          4.08629       -0.31029       -2.06835
C          5.13853       -1.38356        0.07228
H          4.51856        0.50582        0.81797
C          5.27309       -2.43630       -0.82003
S          6.46414       -1.44314        1.30981
C          6.39305       -3.29938       -0.55475
H          4.58959       -2.60814       -1.64836
C          7.13699       -2.91268        0.54553
H          6.63654       -4.16983       -1.16124
H          8.02574       -3.36981        0.96703
C          5.17157        2.66078       -0.70068
S          5.62570        1.76653       -3.13719
C          6.09140        3.59144       -1.29832
H          4.79339        2.78679        0.31156
C          6.44052        3.26324       -2.59601
H          6.47741        4.46854       -0.78214
H          7.10900        3.77867       -3.27720
C          1.45219        2.63965       -2.49269
C          1.56369        0.39946       -3.57123
C          1.79888        3.57950       -1.35000
C          0.81411        3.15476       -3.66051
H          2.19993        3.04169       -0.49248
H          0.91696        4.12699       -0.99620
H          2.55042        4.31701       -1.67231
C          0.43868        4.63218       -3.73724
C          0.52706        2.29669       -4.76057
H          0.65694        5.05498       -4.72757
H          0.97861        5.23595       -3.00258
H         -0.63817        4.78282       -3.54759
C         -0.23969        2.82959       -5.96782
C          0.95384        0.93763       -4.73825
H          0.43859        3.13889       -6.78240
H         -0.85433        3.69842       -5.71011
H         -0.91589        2.06966       -6.37949
C          0.73902        0.04430       -5.95586
H          1.54127       -0.69565       -6.06483
H          0.70617        0.62031       -6.88764
H         -0.20866       -0.51700       -5.88020
C          1.97362       -1.06675       -3.55903
H          2.17374       -1.43082       -2.55015
H          2.87095       -1.23577       -4.17953
H          1.17342       -1.70025       -3.95777
C          2.59076       -1.30446        1.82798
C          2.36860       -2.71238        1.82090
C          2.75789       -0.57666        3.04210
C          2.11962       -3.46348        0.52076
C          2.32805       -3.40577        3.06651
H          2.06283       -2.78688       -0.33213
H          1.16711       -4.01221        0.55803
H          2.91468       -4.19702        0.32051
C          2.11163       -4.91641        3.09656
C          2.49328       -2.69196        4.28986
H          2.82035       -5.40906        3.77735
H          2.23979       -5.37426        2.11199
H          1.09662       -5.17540        3.44358
C          2.41034       -3.42797        5.62388
C          2.72838       -1.28611        4.27713
H          3.41276       -3.70003        5.99857
H          1.83133       -4.35434        5.54917
H          1.93467       -2.81171        6.39711
C          2.94407       -0.54205        5.59155
H          1.98602       -0.30007        6.08396
H          3.47855        0.40252        5.44830
H          3.52998       -1.13980        6.30187
C          2.92739        0.93728        3.03896
H          3.95442        1.23426        3.31087
H          2.25224        1.40832        3.76571
H          2.68236        1.37642        2.07032
