87
/cluster/projects/nn2506k/marcof/RuC_BondLength/evolutionary_desing/RUN28052021121055/Gen014/M00000117_I_DFT.out	Energy: -1071239.6050881
Ru        -0.20323        0.18221        0.03808
C         -0.57068       -0.89162        1.45584
C          1.73280        0.05198       -0.18997
Cl        -1.01534       -1.26346       -1.72038
Cl        -0.30050        2.31026        1.18700
H          0.11372       -1.49331        2.05778
H         -1.64481       -0.92635        1.73940
N          2.37933        0.74442       -1.21947
N          2.70622       -0.61201        0.54856
C          3.86992        0.48648       -1.24415
C          1.73604        1.29965       -2.41457
C          4.11032       -0.23681        0.11402
C          4.77426        1.69994       -1.48077
H          4.06225       -0.21004       -2.06939
C          5.13743       -1.37113        0.05892
H          4.48323        0.48711        0.84932
C          6.20042       -1.37131        0.99416
C          5.10558       -2.39846       -0.91634
C          7.20206       -2.36368        0.96270
H          6.24943       -0.58815        1.75313
C          7.15794       -3.38030       -0.01399
H          8.01213       -2.34066        1.69366
C          6.10326       -3.39249       -0.95291
H          7.93198       -4.14910       -0.04510
H          6.05861       -4.17477       -1.71291
H          4.29971       -2.43902       -1.64792
C          4.98739        2.70911       -0.50939
C          5.46726        1.79982       -2.71127
C          5.86634        3.78089       -0.76083
H          4.45934        2.67894        0.44358
C          6.55229        3.86738       -1.99223
H          6.01288        4.54921        0.00050
C          6.34731        2.87134       -2.96964
H          7.23407        4.69743       -2.18554
H          6.87014        2.92588       -3.92604
H          5.32010        1.03398       -3.47526
C          1.40460        2.68588       -2.46298
C          1.54632        0.45255       -3.54872
C          1.71477        3.62287       -1.30819
C          0.78096        3.20254       -3.63822
H          2.08806        3.08338       -0.44009
H          0.82079        4.16755       -0.98066
H          2.47398        4.36363       -1.60384
C          0.39888        4.67842       -3.71261
C          0.51460        2.34838       -4.74590
H          0.60754        5.10173       -4.70451
H          0.94354        5.28419       -2.98286
H         -0.67687        4.82566       -3.51366
C         -0.23998        2.88141       -5.96091
C          0.94700        0.99124       -4.72122
H         -0.86987        3.73997       -5.70525
H         -0.90013        2.11671       -6.38919
H          0.44642        3.20653       -6.76250
C          0.74712        0.10023       -5.94334
H          1.54399       -0.64720       -6.03881
H          0.73615        0.67761       -6.87500
H         -0.20688       -0.45244       -5.88558
C          1.95174       -1.01475       -3.53573
H          1.15024       -1.64441       -3.93819
H          2.14566       -1.37829       -2.52622
H          2.85131       -1.18946       -4.15136
C          2.56492       -1.33131        1.80703
C          2.33609       -2.73820        1.78106
C          2.74633       -0.62577        3.03282
C          2.05275       -3.46597        0.47477
C          2.31750       -3.45424        3.01446
H          1.96040       -2.77308       -0.36151
H          1.10711       -4.02451        0.53310
H          2.84673       -4.18814        0.23339
C          2.10218       -4.96538        3.01956
C          2.50371       -2.76348        4.24764
H          2.81277       -5.46870        3.69026
H          2.22961       -5.40614        2.02702
H          1.08798       -5.23151        3.36385
C          2.44267       -3.52394        5.56922
C          2.73505       -1.35704        4.25565
H          3.45044       -3.80855        5.91958
H          1.85704       -4.44568        5.48800
H          1.98495       -2.92037        6.36290
C          2.96528       -0.63533        5.58031
H          3.48938        0.31648        5.44690
H          3.56665       -1.24138        6.27059
H          2.01304       -0.41052        6.09173
C          2.90280        0.88942        3.05773
H          3.92922        1.19328        3.32450
H          2.23051        1.33870        3.80081
H          2.64259        1.34448        2.10098
