79
/cluster/projects/nn2506k/marcof/RuC_BondLength/evolutionary_desing/RUN28052021121055/Gen014/M00000122_I_DFT.out	Energy: -880020.3901115
Ru        -0.14851       -0.18053       -0.18458
C         -0.52074       -1.02810        1.37756
C          1.79915       -0.25373       -0.36959
Cl        -0.80577       -1.90235       -1.74703
Cl        -0.39440        2.08857        0.61845
H          0.16491       -1.45471        2.11209
H         -1.60547       -1.08840        1.61426
N          2.42150        0.44495       -1.39641
N          2.80100       -0.88884        0.37199
C          3.89481        0.30063       -1.38118
C          1.80362        1.17173       -2.49954
C          4.20010       -0.43434       -0.05085
H          4.21787       -0.26861       -2.26247
H          4.37212        1.28741       -1.42696
C          5.40784       -1.45657       -0.16142
H          4.52476        0.30294        0.70004
C          5.79176       -2.05098        1.22617
C          5.17796       -2.61614       -1.16798
C          6.63295       -0.60841       -0.64437
H          5.93768       -1.26031        1.97731
H          6.73963       -2.60360        1.13870
H          5.03632       -2.74301        1.60938
H          4.34399       -3.25590       -0.86741
H          6.08060       -3.24391       -1.21577
H          4.98146       -2.25894       -2.18869
H          6.83203        0.23746        0.03248
H          6.49789       -0.21002       -1.65939
H          7.53400       -1.23873       -0.65894
C          1.68856        2.59028       -2.40847
C          1.45971        0.46915       -3.69247
C          2.24931        3.35458       -1.21826
C          1.06053        3.29371       -3.47560
H          2.58023        2.68374       -0.42357
H          1.49685        4.01664       -0.77384
H          3.10636        3.97808       -1.52547
C          0.89605        4.80827       -3.39693
C          0.57095        2.58270       -4.60984
H          0.98386        5.28112       -4.38355
H          1.64797        5.27075       -2.74896
H         -0.09196        5.08251       -2.98778
C         -0.21576        3.32209       -5.68827
C          0.82564        1.18722       -4.74742
H         -0.93659        2.66276       -6.18559
H          0.44436        3.73425       -6.47187
H         -0.78391        4.16076       -5.26880
C          0.40898        0.46151       -6.02310
H          0.98668       -0.45400       -6.18528
H          0.54183        1.09065       -6.91301
H         -0.65410        0.16650       -5.98542
C          1.79634       -1.00450       -3.87089
H          2.55396       -1.13273       -4.66255
H          0.91401       -1.58963       -4.15440
H          2.18301       -1.45312       -2.95459
C          2.60202       -1.54041        1.66062
C          2.28502       -2.93062        1.70674
C          2.76589       -0.77524        2.85358
C          1.99046       -3.71233        0.43464
C          2.18965       -3.57430        2.97760
H          2.03971       -3.07934       -0.45081
H          0.97554       -4.13424        0.46123
H          2.68814       -4.55323        0.29928
C          1.85620       -5.06209        3.06189
C          2.40725       -2.83186        4.17587
H          2.58700       -5.60359        3.68117
H          1.84367       -5.54432        2.08152
H          0.86421       -5.22842        3.51399
C          2.30320       -3.50975        5.53907
C          2.70325       -1.43883        4.11251
H          3.30076       -3.69369        5.97436
H          1.79046       -4.47459        5.48895
H          1.75192       -2.88685        6.25680
C          2.93713       -0.65449        5.40023
H          3.45342       -1.26097        6.15501
H          1.98662       -0.31865        5.85071
H          3.54679        0.24000        5.23307
C          2.94682        0.73711        2.80811
H          2.67394        1.15302        1.83648
H          3.98181        1.04132        3.03816
H          2.29725        1.22684        3.54589
