61
/cluster/projects/nn2506k/marcof/RuC_BondLength/evolutionary_desing/RUN28052021044732/Gen017/M00000120_I_DFT.out	Energy: -1105683.2707630
Ru        -0.07872        0.48504        0.22498
C         -0.50349       -0.59516        1.62306
C          1.81073        0.09570       -0.14188
Cl        -1.35319       -0.64004       -1.48349
Cl         0.04633        2.60824        1.34176
H          0.08148       -1.38905        2.08894
H         -1.52496       -0.44585        2.02959
N          2.41717        0.45720       -1.35285
N          2.81123       -0.44529        0.66862
C          3.95661        0.39000       -1.29842
C          1.71283        0.72981       -2.60282
C          4.17330       -0.58682       -0.05215
C          4.56410        1.80355       -1.07235
C          4.56456       -0.14014       -2.62156
C          5.35594       -0.17287        0.86252
C          4.44396       -2.06136       -0.46089
H          5.27420        0.84147        1.25453
H          6.29192       -0.24389        0.29165
H          5.44280       -0.86557        1.70928
H          3.65861       -2.49099       -1.08346
H          4.55736       -2.68716        0.42941
H          5.39308       -2.12112       -1.00916
H          4.15839        2.30929       -0.19379
H          4.37884        2.43903       -1.94254
H          5.65363        1.72610       -0.96288
H          4.19941       -1.12687       -2.90945
H          5.65700       -0.19622       -2.51824
H          4.35417        0.55795       -3.44166
C          1.43550        2.05641       -3.07841
C          1.33866       -0.37829       -3.43182
C          1.72368        3.36640       -2.37154
C          0.84800        2.25327       -4.35252
F          2.01569        3.30481       -1.01102
F          0.64055        4.27477       -2.49365
F          2.83665        4.04976       -2.98348
C          0.51871        1.16336       -5.16908
H          0.63889        3.26536       -4.69297
C          0.75681       -0.13467       -4.69898
H          0.06573        1.32888       -6.14667
H          0.47204       -0.99117       -5.31181
C          1.50408       -1.83548       -3.03853
H          0.57482       -2.37751       -3.25475
H          1.70880       -1.97121       -1.97965
H          2.30705       -2.31312       -3.62279
C          2.69455       -0.80961        2.07006
C          2.44642       -2.16013        2.49727
C          2.92059        0.18745        3.07282
C          2.03778       -3.33395        1.62489
C          2.50944       -2.50292        3.87027
F          1.63660       -3.04333        0.31565
F          0.93753       -4.03466        2.20118
F          3.06969       -4.31939        1.51978
C          2.77253       -1.52563        4.84134
H          2.32393       -3.53114        4.17540
C          2.94978       -0.19496        4.43789
H          2.81627       -1.79948        5.89555
H          3.12125        0.57846        5.18837
C          3.13585        1.66127        2.78079
H          2.39043        2.25827        3.32246
H          3.02644        1.91513        1.72875
H          4.13088        1.98153        3.12783
