95
/cluster/projects/nn2506k/marcof/RuC_BondLength/evolutionary_desing/RUN28052021121055/Gen033/M00000222_I_DFT.out	Energy: -1245307.2820429
Ru         0.20145        0.86877       -0.09632
C         -0.33394        0.34768        1.55772
C          2.03072        0.21230       -0.28971
Cl        -1.20349       -0.60351       -1.39668
Cl         0.84015        3.16082        0.28821
H          0.10587       -0.42271        2.19306
H         -1.27856        0.80920        1.91604
N          2.66594        0.30487       -1.52984
N          2.96932       -0.22264        0.63360
C          4.21740        0.25670       -1.37654
C          1.92604        0.21762       -2.77722
C          4.32257       -0.63709       -0.02897
C          4.65871        1.75863       -1.18585
C          4.92408       -0.40687       -2.59625
C          5.56726       -0.22933        0.82702
C          4.26262       -2.20130       -0.19862
C          5.98338       -1.05819        2.07421
H          5.45948        0.81358        1.13689
H          6.42251       -0.25472        0.13736
C          7.26836       -0.48169        2.71656
H          6.17045       -2.10703        1.80681
H          5.19078       -1.06645        2.83168
H          7.12193        0.55899        3.04664
H          7.56586       -1.07281        3.59701
H          8.11264       -0.49096        2.00843
C          5.47894       -3.00112       -0.75214
H          3.37167       -2.46335       -0.77362
H          4.08648       -2.58480        0.81374
C          5.35763       -4.50678       -0.41412
H          6.42964       -2.62251       -0.34877
H          5.54780       -2.90552       -1.84209
H          5.36836       -4.68134        0.67406
H          4.42075       -4.92817       -0.81122
H          6.19291       -5.07667       -0.85121
C          6.15693        2.18467       -1.21648
H          4.20004        2.14342       -0.26757
H          4.17058        2.29793       -1.99996
C          6.28261        3.71561       -1.41664
H          6.70178        1.67909       -2.02751
H          6.67693        1.92135       -0.28649
H          5.76457        4.26310       -0.61357
H          7.33935        4.02838       -1.41060
H          5.83679        4.03391       -2.37085
C          5.02236        0.35756       -3.94510
H          4.45729       -1.37642       -2.79587
H          5.95313       -0.62240       -2.27272
C          5.85890       -0.43919       -4.97387
H          5.47506        1.34689       -3.80846
H          4.02656        0.53678       -4.36549
H          5.41532       -1.42714       -5.17881
H          5.91911        0.10308       -5.93049
H          6.88970       -0.60296       -4.61884
C          1.38888        1.30714       -3.54205
C          1.62854       -1.07462       -3.28340
C          0.61467        1.03502       -4.70005
C          1.63967        2.79452       -3.32038
C          0.36499       -0.26728       -5.18297
H          0.20295        1.87667       -5.25610
C         -0.49765       -0.50612       -6.41396
C          0.90042       -1.34084       -4.44503
C         -1.99887       -0.70979       -6.06665
H         -0.13445       -1.39410       -6.95561
H         -0.40330        0.34655       -7.10492
H         -2.41219        0.17152       -5.55477
H         -2.14070       -1.57437       -5.40233
H         -2.58260       -0.88044       -6.98443
H          0.72932       -2.37816       -4.73009
C          0.43818        3.73993       -3.33174
O          2.80634        3.25398       -3.24506
H          0.32740        4.18142       -4.33651
H         -0.49909        3.24382       -3.05770
H          0.63716        4.55868       -2.63118
F          2.07959       -2.20147       -2.57786
C          2.76397       -0.23364        2.05867
C          2.34937       -1.37741        2.82076
C          3.05113        0.93468        2.80626
C          2.25795       -1.28067        4.23325
C          1.89663       -2.68661        2.19272
C          2.51057       -0.08449        4.94329
H          1.94723       -2.15793        4.79864
C          2.32087       -0.00136        6.45182
C          2.91939        1.04020        4.19673
C          0.90250        0.48474        6.86012
H          3.06772        0.68457        6.88195
H          2.50233       -0.98954        6.90328
H          0.12386       -0.19716        6.48688
H          0.69300        1.48670        6.45739
H          0.81621        0.53318        7.95639
H          3.14683        1.99363        4.67275
C          2.21948       -3.99598        2.92258
O          1.23326       -2.70511        1.12746
H          3.19979       -3.97763        3.41714
H          1.45542       -4.20344        3.68975
H          2.18087       -4.81584        2.19525
F          3.52578        2.06996        2.14187
