90
/cluster/projects/nn2506k/marcof/RuC_BondLength/evolutionary_desing/RUN28052021044732/Gen010/M00000085_I_DFT.out	Energy: -1095381.6972580
Ru         0.18346       -0.75759       -0.01098
C         -0.20517       -0.27010        1.69564
C          2.07570       -0.26137       -0.22293
Cl         0.20232       -3.15365        0.25914
Cl        -0.92178        1.01670       -1.20659
H          0.45606        0.17264        2.44412
H         -1.25508       -0.45130        2.00780
N          2.74078       -0.50914       -1.43015
N          2.99199        0.34783        0.64322
C          4.18893       -0.18719       -1.35237
C          2.28052       -1.34648       -2.54523
C          4.35828        0.64644       -0.05144
H          4.50210        0.36285       -2.24482
H          4.77706       -1.11444       -1.31103
C          4.54193        2.17209       -0.33849
C          5.57744        0.16874        0.78623
C          5.90182        2.51591       -0.99921
H          3.72935        2.53864       -0.97194
H          4.48273        2.71336        0.61558
C          7.09507        2.00192       -0.16732
H          5.95676        2.09321       -2.01681
H          5.96131        3.60994       -1.12134
C          6.93822        0.49379        0.11704
H          7.14436        2.55289        0.78788
H          8.04257        2.19563       -0.69562
H          7.74564        0.14232        0.78015
H          7.04570       -0.07192       -0.82437
H          5.51719       -0.91097        0.95885
H          5.54838        0.66249        1.76696
C          2.48809       -2.76317       -2.39756
C          1.73752       -0.81584       -3.77498
C          3.27416       -3.38362       -1.25334
C          2.00366       -3.64850       -3.37938
H          2.90210       -4.39211       -1.03840
H          3.20800       -2.81798       -0.32698
H          4.33798       -3.47868       -1.53251
C          1.36053       -3.16810       -4.53652
H          2.13868       -4.71668       -3.21988
C          1.27614       -1.77402       -4.71393
C          0.79440       -4.07273       -5.60520
H          0.83186       -1.44285       -5.64656
C          0.76377       -5.58118       -5.36503
O          0.34485       -3.59116       -6.68282
H          1.78261       -5.98791       -5.26462
H          0.21881       -5.82540       -4.44032
H          0.27149       -6.06816       -6.21416
C          1.68936        0.66194       -4.32045
C          2.71865        0.73803       -5.50395
C          0.26132        0.99872       -4.86890
C          2.05988        1.79446       -3.32965
H          2.71946        1.75375       -5.92813
H          2.47553        0.03695       -6.31285
H          3.74044        0.51249       -5.16029
H         -0.49215        0.90595       -4.07831
H         -0.03947        0.36179       -5.70965
H          0.24890        2.03733       -5.23211
H          1.40839        1.79845       -2.45466
H          1.93436        2.75949       -3.84338
H          3.10524        1.73833       -3.01410
C          2.73175        0.96403        1.94743
C          2.18687        2.29908        1.94606
C          3.10175        0.34646        3.20744
C          1.55843        2.97305        0.73474
C          2.17037        3.05605        3.13631
H          2.05583        3.92884        0.51128
H          0.50380        3.19830        0.95017
H          1.56263        2.36108       -0.16253
C          2.67935        2.53629        4.34162
H          1.76091        4.06454        3.09359
C          3.10188        1.19234        4.34545
C          2.75447        3.32765        5.62494
H          3.42830        0.80263        5.30450
C          2.23867        4.76563        5.64838
O          3.23921        2.80940        6.67003
H          2.77639        5.39495        4.92219
H          1.16857        4.80800        5.39172
H          2.38041        5.17929        6.65296
C          3.40788       -1.16232        3.56622
C          4.82579       -1.29555        4.21598
C          2.33646       -1.61819        4.62406
C          3.30852       -2.19400        2.41643
H          4.99176       -2.34067        4.51721
H          4.94247       -0.67394        5.11308
H          5.62154       -1.02073        3.51171
H          2.53246       -2.66217        4.91019
H          1.32251       -1.57476        4.20217
H          2.35092       -1.01583        5.54055
H          2.32746       -2.18601        1.93734
H          3.45603       -3.19998        2.83672
H          4.07452       -2.04956        1.65299
