61
/cluster/projects/nn2506k/marcof/RuC_BondLength/evolutionary_desing/RUN28052021044732/Gen024/M00000162_I_DFT.out	Energy: -1105683.2707630
Ru        -0.07872        0.48503        0.22497
C         -0.50349       -0.59515        1.62306
C          1.81074        0.09570       -0.14188
Cl        -1.35319       -0.64009       -1.48348
Cl         0.04631        2.60825        1.34170
H          0.08149       -1.38902        2.08897
H         -1.52496       -0.44585        2.02959
N          2.41718        0.45721       -1.35285
N          2.81123       -0.44529        0.66862
C          3.95661        0.38999       -1.29842
C          1.71283        0.72982       -2.60282
C          4.17330       -0.58683       -0.05214
C          4.56411        1.80354       -1.07236
C          4.56456       -0.14015       -2.62156
C          5.35593       -0.17286        0.86253
C          4.44397       -2.06136       -0.46087
H          5.27418        0.84147        1.25455
H          6.29192       -0.24387        0.29166
H          5.44280       -0.86557        1.70929
H          3.65863       -2.49100       -1.08345
H          4.55735       -2.68716        0.42942
H          5.39310       -2.12112       -1.00914
H          4.15841        2.30929       -0.19380
H          4.37886        2.43902       -1.94255
H          5.65364        1.72608       -0.96288
H          4.19942       -1.12688       -2.90944
H          5.65700       -0.19623       -2.51824
H          4.35416        0.55793       -3.44166
C          1.43549        2.05642       -3.07841
C          1.33866       -0.37828       -3.43182
C          1.72370        3.36641       -2.37154
C          0.84797        2.25328       -4.35251
F          2.01572        3.30482       -1.01103
F          0.64058        4.27479       -2.49365
F          2.83668        4.04975       -2.98350
C          0.51868        1.16338       -5.16906
H          0.63886        3.26537       -4.69295
C          0.75679       -0.13466       -4.69897
H          0.06569        1.32889       -6.14665
H          0.47202       -0.99116       -5.31180
C          1.50409       -1.83547       -3.03854
H          0.57484       -2.37751       -3.25475
H          1.70882       -1.97120       -1.97967
H          2.30706       -2.31311       -3.62282
C          2.69454       -0.80962        2.07006
C          2.44643       -2.16014        2.49726
C          2.92058        0.18745        3.07282
C          2.03777       -3.33396        1.62489
C          2.50945       -2.50293        3.87027
F          1.63660       -3.04333        0.31565
F          0.93751       -4.03464        2.20118
F          3.06966       -4.31940        1.51979
C          2.77256       -1.52563        4.84134
H          2.32396       -3.53114        4.17540
C          2.94979       -0.19496        4.43788
H          2.81631       -1.79949        5.89554
H          3.12126        0.57846        5.18836
C          3.13582        1.66127        2.78079
H          2.39033        2.25825        3.32240
H          3.02647        1.91511        1.72874
H          4.13082        1.98157        3.12789
