87
/cluster/projects/nn2506k/marcof/RuC_BondLength/evolutionary_desing/RUN28052021044948/Gen024/M00000162_I_DFT.out	Energy: -1070759.6844783
Ru        -0.07992        0.27529       -0.14483
C         -0.30427       -0.24706        1.59581
C          1.85176        0.24085       -0.29440
Cl        -0.82510       -1.92733       -0.97250
Cl        -0.44144        2.67241        0.17904
H          0.46177       -0.49752        2.33655
H         -1.34572       -0.36725        1.96042
N          2.83206        0.83408        0.49868
N          2.50369       -0.21364       -1.45278
C          4.18039        0.77767       -0.13237
C          2.75529        1.34126        1.85225
C          3.88688        0.40013       -1.60616
H          4.78612        0.01706        0.37645
H          4.67817        1.75011       -0.04920
C          3.88546        1.63660       -2.56507
C          5.00814       -0.47797       -2.22613
C          5.38021        1.88446       -2.91412
H          3.39142        2.50863       -2.11885
H          3.32815        1.37240       -3.47420
C          6.11973        0.53844       -2.60011
H          5.49332        2.17341       -3.96925
H          5.80049        2.70694       -2.31648
H          6.81919        0.67116       -1.76072
H          6.71388        0.18289       -3.45444
H          4.63291       -0.96792       -3.13480
H          5.36274       -1.26049       -1.54522
C          2.80706        0.45643        2.98276
C          2.72054        2.74955        2.06511
C          2.70815        1.00067        4.28803
C          3.06213       -1.02999        2.87019
C          2.61497        2.38869        4.51945
H          2.73069        0.33119        5.14664
C          2.45943        2.94687        5.92746
C          2.64624        3.23656        3.39264
C          0.97194        3.07584        6.37136
H          2.98753        2.30072        6.64794
H          2.93180        3.94075        5.98897
C          0.81328        3.65546        7.79702
H          0.43361        3.71461        5.65143
H          0.49195        2.08367        6.32241
C         -0.66074        3.78017        8.24254
H          1.29257        4.64952        7.84183
H          1.35844        3.01663        8.51458
H         -1.22720        4.44068        7.56708
H         -0.73438        4.19769        9.25915
H         -1.16145        2.79883        8.24643
H          2.59898        4.31690        3.54186
C          2.53846       -1.96605        3.96652
O          3.73972       -1.52039        1.92527
H          3.24637       -1.99421        4.81128
H          1.55744       -1.66684        4.35652
H          2.47816       -2.97981        3.55283
C          2.79565        3.75451        0.92992
H          2.36341        4.71538        1.23640
H          2.24536        3.41468        0.04970
H          3.84488        3.94298        0.64436
C          2.00771       -1.14409       -2.44806
C          2.40357       -2.50941       -2.39149
C          1.22270       -0.69439       -3.55684
C          3.04686       -3.13985       -1.17018
C          2.10734       -3.34776       -3.49492
H          2.29138       -3.75872       -0.65920
H          3.40414       -2.41363       -0.44000
H          3.88036       -3.80199       -1.44863
C          1.42834       -2.89711       -4.64601
H          2.41022       -4.39571       -3.43720
C          1.17661       -3.81921       -5.83146
C          0.97649       -1.56044       -4.64823
C          2.31287       -3.78520       -6.89551
H          1.05865       -4.85547       -5.47570
H          0.22763       -3.54569       -6.32059
C          2.04896       -4.72855       -8.09333
H          2.43590       -2.75177       -7.26259
H          3.26750       -4.06012       -6.41532
C          3.17185       -4.69912       -9.15396
H          1.09084       -4.45421       -8.56907
H          1.92469       -5.76135       -7.72267
H          3.29824       -3.68853       -9.57447
H          2.94787       -5.38260       -9.98813
H          4.13812       -5.00466       -8.72154
H          0.37462       -1.20838       -5.48557
C          0.47701        0.59770       -3.50331
C          0.18047        1.38476       -4.77515
O          0.01225        1.02942       -2.40659
H          1.00528        1.34081       -5.49857
H         -0.72218        0.98228       -5.26384
H         -0.03189        2.42598       -4.50422
