37
/cluster/projects/nn2506k/marcof/RuC_BondLength/evolutionary_desing/RUN28052021044948/Gen016/M00000122_I_DFT.out	Energy: -534885.4766104
Ru        -0.20634       -0.02479        0.03056
C         -0.36891       -0.20214        1.83263
C          1.71505        0.10364       -0.12054
Cl        -0.46123       -2.28038       -0.81423
Cl        -0.65607        2.33319       -0.13674
H          0.41662       -0.11634        2.59138
H         -1.40213       -0.35341        2.20847
N          2.33157        0.72252       -1.20961
N          2.72955       -0.27375        0.75521
C          3.77352        0.99386       -0.95773
C          1.70978        1.15338       -2.43278
C          4.08721        0.04009        0.20779
H          3.92247        2.04663       -0.66922
H          4.36887        0.78383       -1.85511
H          4.72086        0.50561        0.97216
H          4.57056       -0.89203       -0.12879
C          1.99456        2.43685       -2.95883
C          0.86030        0.27575       -3.14888
C          1.41874        2.84158       -4.17802
H          2.62848        3.13082       -2.40791
C          0.54801        1.97963       -4.88077
H          1.63487        3.83749       -4.56841
C          0.27156        0.69913       -4.35796
H          0.09526        2.30134       -5.81965
H         -0.39054        0.01726       -4.89401
H          0.67647       -0.73133       -2.77992
C          2.67022       -1.16679        1.88873
C          2.19984       -2.49359        1.74744
C          3.17619       -0.72503        3.13546
C          2.21780       -3.36151        2.85928
H          1.80292       -2.82988        0.79259
C          2.72160       -2.92500        4.10392
H          1.84068       -4.37921        2.74727
C          3.20324       -1.60375        4.23763
H          2.73786       -3.60348        4.95822
H          3.58870       -1.25472        5.19699
H          3.52517        0.30254        3.24596
