106
/cluster/projects/nn2506k/marcof/RuC_BondLength/evolutionary_desing/RUN28052021044732/Gen023/M00000157_I_DFT.out	Energy: -1288685.4007804
Ru        -0.18524       -0.16279       -0.33486
C         -0.66544       -0.92903        1.24101
C          1.75987       -0.34768       -0.43317
Cl        -0.88626       -1.95267       -1.80184
Cl        -0.44622        2.13257        0.39403
H         -0.03926       -1.37454        2.01584
H         -1.76002       -0.91824        1.43356
N          2.45975        0.24054       -1.49907
N          2.68502       -0.97960        0.38368
C          3.92704        0.22318       -1.22419
C          1.83070        1.05359       -2.54733
C          4.12872       -0.98788       -0.22061
C          4.82247        0.31811       -2.48064
H          4.20082        1.14103       -0.67677
C          5.24445       -0.59001        0.80585
C          4.36916       -2.40340       -0.85213
C          5.74087       -1.61271        1.86132
H          4.92378        0.32205        1.32495
H          6.11519       -0.29752        0.20192
C          6.92141       -1.03905        2.68656
H          4.93224       -1.89311        2.54471
H          6.07596       -2.53918        1.37442
C          7.45913       -2.02490        3.75155
H          7.74432       -0.75761        2.00502
H          6.60184       -0.10674        3.18586
C          8.63583       -1.45780        4.58214
H          7.78374       -2.95674        3.25469
H          6.63743       -2.30823        4.43334
C          9.17153       -2.44365        5.64431
H          8.31359       -0.52630        5.08033
H          9.45815       -1.17492        3.90149
H          8.38549       -2.71980        6.36557
H          9.53824       -3.37228        5.17812
H         10.00609       -2.00267        6.21206
C          5.75321       -2.79671       -1.44302
H          3.60156       -2.57843       -1.61762
H          4.16063       -3.10914       -0.04135
C          5.82969       -4.32931       -1.67688
H          5.93081       -2.29860       -2.40178
H          6.56670       -2.48907       -0.77492
C          7.11671       -4.81275       -2.39459
H          5.73383       -4.85723       -0.71053
H          4.95906       -4.63679       -2.28335
C          8.42635       -4.66183       -1.58054
H          7.22164       -4.27553       -3.35411
H          6.98888       -5.87896       -2.65326
C          9.65987       -5.24852       -2.30321
H          8.30437       -5.16421       -0.60408
H          8.61418       -3.59754       -1.36263
H          9.83032       -4.74780       -3.26983
H         10.57243       -5.12692       -1.69820
H          9.53111       -6.32450       -2.50301
F          4.59590       -0.63158       -3.48936
F          4.70656        1.58368       -3.09940
F          6.19739        0.22149       -2.12842
C          1.76883        2.47026       -2.38818
C          1.36557        0.41471       -3.73645
C          2.38536        3.17118       -1.18738
C          1.13629        3.24778       -3.39698
H          3.35808        3.61892       -1.45335
H          2.53065        2.49479       -0.34369
H          1.73755        3.97362       -0.82030
C          1.08801        4.76563       -3.25339
C          0.54523        2.61020       -4.52609
H          2.01231        5.15807       -2.81090
H          0.25688        5.08347       -2.60015
H          0.95884        5.26688       -4.21871
C         -0.25617        3.43394       -5.53027
C          0.70349        1.20780       -4.72030
H          0.39302        3.90300       -6.29025
H         -0.81151        4.23978       -5.03430
H         -0.99073        2.82150       -6.06390
C          0.16347        0.55439       -5.98924
H         -0.92083        0.36345       -5.91055
H          0.64131       -0.40757       -6.19547
H          0.32067        1.18904       -6.87158
C          1.58302       -1.06773       -3.99454
H          0.63980       -1.57844       -4.21745
H          2.02147       -1.57198       -3.13429
H          2.26122       -1.21121       -4.85010
C          2.39189       -1.57599        1.68300
C          2.04225       -2.95822        1.78137
C          2.46152       -0.74718        2.84665
C          1.70266       -3.78995        0.55045
C          1.89771       -3.54305        3.07635
H          1.65284       -3.18435       -0.35294
H          0.71292       -4.25270        0.67091
H          2.42042       -4.60634        0.37830
C          1.59368       -5.03325        3.21102
C          2.02204       -2.73885        4.24584
H          2.23568       -5.50414        3.96890
H          1.75115       -5.57622        2.27532
H          0.54834       -5.21124        3.51576
C          1.83565       -3.34996        5.63109
C          2.28690       -1.34242        4.12968
H          1.26512       -2.68424        6.29184
H          2.80661       -3.53384        6.12331
H          1.30295       -4.30501        5.59857
C          2.37439       -0.49222        5.39364
H          2.94622       -1.00098        6.18194
H          1.37308       -0.28306        5.80820
H          2.85494        0.47426        5.21752
C          2.64762        0.76092        2.74666
H          3.58290        1.09588        3.22132
H          1.82301        1.28407        3.25146
H          2.64732        1.10793        1.71411
