76
/cluster/projects/nn2506k/marcof/RuC_BondLength/evolutionary_desing/RUN28052021044732/Gen023/M00000153_I_DFT.out	Energy: -954379.8376716
Ru        -0.09592       -0.16226       -0.06886
C         -0.35245       -0.74524        1.63406
C          1.82175       -0.21537       -0.32774
Cl        -0.85548       -2.12534       -1.23836
Cl        -0.43860        2.18754        0.33459
H          0.38804       -1.05014        2.37490
H         -1.41774       -0.77447        1.94657
N          2.42734        0.28635       -1.47487
N          2.88115       -0.69050        0.51242
C          3.91468        0.43823       -1.27666
C          1.73740        0.88336       -2.61982
C          4.15859       -0.59233       -0.14566
C          4.81766        0.48679       -2.50614
H          4.08402        1.41463       -0.80020
Cl         5.57753       -0.02825        0.94596
Cl         4.79249       -2.31817       -0.80409
C          4.91258       -0.50505       -3.50751
N          5.56650        1.63432       -2.54937
C          5.80982       -0.31146       -4.57702
H          4.31834       -1.40861       -3.45245
C          6.59087        0.86112       -4.62155
H          5.89827       -1.06788       -5.35782
C          6.43303        1.80344       -3.58332
H          7.29753        1.04379       -5.43138
H          7.01220        2.72860       -3.57039
C          1.63899        2.30399       -2.70431
C          1.25673        0.03155       -3.65964
C          2.22642        3.21497       -1.63695
C          0.97918        2.87568       -3.82822
H          2.32499        2.70988       -0.67446
H          1.58019        4.08032       -1.45681
H          3.21871        3.58902       -1.93737
C          0.90672        4.39335       -3.96298
C          0.38029        2.03606       -4.81178
H          0.76895        4.70724       -5.00342
H          1.82446        4.87365       -3.60145
H          0.07011        4.81311       -3.37785
C         -0.43900        2.65827       -5.93890
C          0.54893        0.62223       -4.74811
H          0.20317        3.02186       -6.76006
H         -1.02470        3.51500       -5.58180
H         -1.14681        1.94502       -6.37314
C         -0.02869       -0.25481       -5.85565
H          0.36440       -1.27434       -5.83131
H          0.18878        0.15468       -6.85246
H         -1.12559       -0.33409       -5.76819
C          1.50604       -1.46931       -3.65061
H          2.03634       -1.79598       -2.75542
H          2.10151       -1.76517       -4.52871
H          0.56703       -2.03307       -3.68110
C          2.75859       -1.22661        1.86970
C          2.54987       -2.62161        2.06682
C          2.88681       -0.31558        2.96082
C          2.22538       -3.56250        0.91658
C          2.56650       -3.12447        3.40117
H          2.05820       -3.03177       -0.01979
H          1.30766       -4.12764        1.13409
H          3.03161       -4.28937        0.74393
C          2.39832       -4.61913        3.65416
C          2.73131       -2.23806        4.50484
H          3.06477       -4.96735        4.45439
H          2.62157       -5.21654        2.76529
H          1.36731       -4.86718        3.96136
C          2.71996       -2.80153        5.92224
C          2.88476       -0.83700        4.28785
H          2.48873       -2.03958        6.67281
H          3.70025       -3.23416        6.18775
H          1.97708       -3.60208        6.03297
C          3.05589        0.09864        5.48178
H          3.35328        1.10717        5.18358
H          3.82690       -0.27381        6.17171
H          2.12216        0.19463        6.06125
C          2.95980        1.18986        2.74034
H          3.92269        1.60344        3.07248
H          2.16512        1.70240        3.30196
H          2.82972        1.46307        1.69275
