73
/cluster/projects/nn2506k/marcof/RuC_BondLength/evolutionary_desing/RUN28052021044948/Gen023/M00000157_I_DFT.out	Energy: -1158633.1080160
Ru         0.28910        0.75904        0.18340
C         -0.01804       -0.00835        1.80168
C          2.14896        0.28495       -0.20128
Cl        -1.11749       -0.63284       -1.18013
Cl         0.71124        3.05832        0.77745
H          0.59537       -0.73938        2.33316
H         -0.98419        0.26206        2.27633
N          2.70793        0.49819       -1.45788
N          3.19725       -0.08029        0.64028
C          4.21351        0.40766       -1.48504
C          1.99116        0.90235       -2.65136
C          4.81050       -0.62571       -2.48887
C          4.55554        0.14769        0.01216
H          4.57553        1.40106       -1.76613
C          4.98817       -2.02319       -1.93277
H          4.21987       -0.63079       -3.41239
H          5.80266       -0.23126       -2.77876
C          5.37306       -2.19562       -0.64677
H          4.82052       -2.87681       -2.59313
C          5.59164       -0.98778        0.24056
H          5.53079       -3.19182       -0.22831
H          5.61947       -1.26700        1.30215
H          6.58194       -0.54435        0.02509
H          4.96641        1.06821        0.44983
C          1.43214       -0.10373       -3.49805
C          1.87188        2.28747       -3.01755
C          1.52232       -1.59303       -3.21349
C          0.75885        0.29859       -4.67340
H          2.12474       -2.09121       -3.99077
H          0.51873       -2.03541       -3.24018
H          1.94807       -1.81976       -2.23630
C          0.60480        1.65385       -5.03307
H          0.32730       -0.45811       -5.32810
C          1.16396        2.63768       -4.18998
C         -0.14466        1.99553       -6.30152
H          1.06718        3.69190       -4.42698
C         -0.43541        3.45906       -6.62615
O         -0.52792        1.07933       -7.07977
H          0.49723        4.02781       -6.76799
H         -1.02374        3.50931       -7.54900
H         -0.99614        3.94386       -5.81229
C          2.50965        3.40931       -2.24041
O          1.81731        4.60203       -2.42607
O          3.55079        3.34219       -1.54726
C          2.31897        5.78247       -1.68590
H          2.28266        5.58465       -0.60782
H          3.34855        6.01839       -1.98907
H          1.63155        6.58960       -1.96041
C          3.14383       -0.48106        2.02343
C          3.45811        0.47204        3.04300
C          2.90573       -1.84919        2.38613
C          3.75583        1.93114        2.74546
C          3.49502        0.04093        4.38717
H          3.43383        2.56152        3.58488
H          3.24618        2.29034        1.84834
H          4.83936        2.09372        2.61972
C          3.25679       -1.30109        4.76162
H          3.71245        0.75973        5.17671
C          2.96738       -2.23602        3.74512
C          3.32601       -1.67605        6.22503
H          2.78799       -3.27924        3.98392
C          3.02761       -3.11357        6.64451
O          3.62823       -0.80718        7.08869
H          2.01011       -3.41248        6.34814
H          3.72871       -3.82036        6.17361
H          3.11985       -3.19326        7.73323
C          2.54711       -2.90465        1.37626
O          2.95583       -4.17509        1.81921
O          1.95264       -2.73813        0.29458
C          2.58233       -5.31567        0.95164
H          2.97529       -6.19734        1.46931
H          1.49054       -5.37442        0.84359
H          3.03746       -5.20686       -0.04203
