91
/cluster/projects/nn2506k/marcof/RuC_BondLength/evolutionary_desing/RUN28052021121055/Gen028/M00000194_I_DFT.out	Energy: -978603.3020628
Ru         0.07717        0.62511        0.28715
C         -0.43197       -0.45590        1.65101
C          1.95760        0.23980       -0.12737
Cl        -1.02951       -0.54325       -1.52145
Cl         0.45262        2.57448        1.71902
H          0.15781       -1.15181        2.25010
H         -1.50279       -0.34036        1.92998
N          2.56783        0.87082       -1.21937
N          2.91309       -0.49619        0.55718
C          4.08894        0.71956       -1.19161
C          1.84704        1.26713       -2.45634
C          4.33236       -0.29284        0.00659
C          4.88647        2.11711       -1.11731
H          4.38559        0.25135       -2.13941
C          5.20625       -1.62635       -0.26120
H          4.88800        0.23869        0.78929
C          4.53555       -2.68988       -1.17127
C          6.56650       -1.28721       -0.94761
C          5.58792       -2.29020        1.10211
H          5.11851       -3.62205       -1.12101
H          4.52460       -2.37636       -2.22138
H          3.51645       -2.92240       -0.87000
H          7.22008       -0.67604       -0.31486
H          6.44170       -0.78582       -1.91423
H          7.09494       -2.23259       -1.14116
H          6.35842       -3.05634        0.92659
H          4.74262       -2.77895        1.59145
H          6.01065       -1.55640        1.80469
C          4.46904        2.99871        0.09420
C          6.42862        1.91860       -0.99014
C          4.69030        2.89445       -2.45651
H          4.83789        4.02463       -0.05428
H          4.91506        2.63310        1.02868
H          3.38983        3.05161        0.23682
H          6.86202        1.39668       -1.85228
H          6.71604        1.38925       -0.07485
H          6.89584        2.91372       -0.94316
H          5.34942        3.77568       -2.46777
H          3.66946        3.24263       -2.60740
H          4.96165        2.26944       -3.32162
C          1.24620        2.55522       -2.60112
C          1.79318        0.33188       -3.53572
C          1.23505        3.59127       -1.49280
C          0.60854        2.89714       -3.83235
H          1.61039        3.20245       -0.55243
H          0.21583        3.95092       -1.29769
H          1.83792        4.47514       -1.75610
C         -0.03848        4.27117       -3.98216
C          0.56910        1.97449       -4.91285
H         -0.08013        4.59399       -5.02823
H          0.50536        5.04575       -3.42911
H         -1.07324        4.27144       -3.59638
C         -0.18030        2.33181       -6.19390
C          1.19558        0.70485       -4.77280
H          0.42515        2.96903       -6.86200
H         -1.10521        2.88020       -5.97386
H         -0.46850        1.44282       -6.76371
C          1.19700       -0.27924       -5.94014
H          2.01282       -1.00611       -5.86683
H          1.31572        0.23628       -6.90182
H          0.25521       -0.85327       -5.98848
C          2.27533       -1.09698       -3.37253
H          2.45199       -1.33831       -2.32876
H          3.20139       -1.29699       -3.93575
H          1.51424       -1.79928       -3.73739
C          2.68078       -1.22205        1.80887
C          2.07823       -2.52025        1.78443
C          3.11332       -0.64159        3.03756
C          1.44459       -3.09568        0.52431
C          1.99421       -3.26716        2.99906
H          1.44662       -2.38814       -0.30278
H          0.39067       -3.35065        0.70610
H          1.94212       -4.02029        0.19529
C          1.38418       -4.66758        2.99818
C          2.47765       -2.71524        4.22173
H          0.39775       -4.68165        3.49227
H          2.02379       -5.38168        3.53665
H          1.24118       -5.06333        1.98971
C          2.36601       -3.50039        5.52573
C          3.04066       -1.40784        4.23672
H          2.05883       -2.85351        6.35825
H          3.33184       -3.95363        5.80929
H          1.63451       -4.31151        5.46320
C          3.56073       -0.81778        5.54417
H          3.96757       -1.59203        6.20578
H          2.76139       -0.29946        6.10229
H          4.35895       -0.08650        5.37512
C          3.60213        0.79574        3.10460
H          3.16389        1.31156        3.96852
H          3.30100        1.36159        2.22521
H          4.69835        0.86093        3.21089
