85
/cluster/projects/nn2506k/marcof/RuC_BondLength/evolutionary_desing/RUN28052021121055/Gen024/M00000172_I_DFT.out	Energy: -1053835.4974354
Ru         0.10671        0.54106        0.12136
C         -0.35438       -0.10107        1.75461
C          1.99474        0.12138       -0.17331
Cl        -0.94562       -1.15766       -1.24039
Cl         0.41013        2.84831        0.79727
H          0.24026       -0.62397        2.50509
H         -1.41440        0.10201        2.02334
N          2.60695        0.49550       -1.37134
N          2.96086       -0.44380        0.63843
C          4.15359        0.48080       -1.24591
C          1.86191        0.68028       -2.60786
C          4.31964       -0.64486       -0.10070
C          4.54062        1.94454       -0.79605
C          4.87469        0.08212       -2.57034
C          5.55740       -0.37477        0.81506
C          4.32054       -2.14034       -0.59496
C          5.99967       -1.43633        1.85534
H          6.40733       -0.22131        0.13569
H          5.41019        0.57320        1.33835
H          6.88597       -1.04911        2.38383
H          6.28920       -2.39059        1.39905
H          5.23788       -1.64432        2.61269
C          5.57058       -2.75740       -1.28251
H          4.14351       -2.72704        0.31160
H          3.45130       -2.30014       -1.23968
H          5.62454       -2.53468       -2.35355
H          5.51370       -3.85389       -1.18907
H          6.51970       -2.44419       -0.82906
C          6.02454        2.39589       -0.70504
H          4.06517        2.59409       -1.53595
H          4.04120        2.16118        0.15644
H          6.51460        2.09182        0.22606
H          6.05299        3.49705       -0.73364
H          6.64057        2.03624       -1.53959
C          4.95704        1.09206       -3.74198
H          5.90602       -0.17416       -2.29017
H          4.42469       -0.83829       -2.95252
H          5.55235        0.63469       -4.54881
H          5.45320        2.03073       -3.46790
H          3.97695        1.33599       -4.16256
C          1.36252        1.92666       -3.10881
C          1.59217       -0.46873       -3.40009
C          1.56435        3.28270       -2.43638
C          0.60922        1.91691       -4.31247
C          2.38408        4.30147       -3.27341
H          2.01642        3.16617       -1.45129
H          0.57221        3.71981       -2.24599
H          2.46202        5.25083       -2.72112
H          1.90813        4.51839       -4.24083
H          3.40336        3.94508       -3.47818
C          0.34241        0.75508       -5.06574
H          0.20769        2.86768       -4.66565
C         -0.52504        0.79994       -6.31635
C          0.86997       -0.46654       -4.59205
C         -2.02815        0.54296       -6.01613
H         -0.17430        0.04713       -7.04056
H         -0.42237        1.78202       -6.80481
H         -2.42952        1.29926       -5.32550
H         -2.17856       -0.44297       -5.55269
H         -2.61693        0.57992       -6.94599
H          0.70051       -1.40886       -5.11124
F          2.07588       -1.71986       -2.96907
C          2.75947       -0.77997        2.02707
C          2.25561       -2.03957        2.48393
C          3.06902        0.18696        3.01712
C          1.71399       -3.11803        1.54317
C          2.14977       -2.25406        3.88317
C          2.32470       -4.53143        1.72254
H          1.81582       -2.80273        0.50233
H          0.62730       -3.19403        1.71643
H          1.87235       -5.22281        0.99519
H          2.13794       -4.94108        2.72579
H          3.41231       -4.53524        1.56026
C          2.48994       -1.28259        4.85113
H          1.76094       -3.21268        4.22769
C          2.31473       -1.55285        6.34050
C          2.95250       -0.02753        4.39263
C          0.93250       -1.09943        6.88661
H          3.10543       -1.03512        6.90668
H          2.43870       -2.62944        6.53723
H          0.11122       -1.62697        6.37873
H          0.78027       -0.01979        6.74014
H          0.85792       -1.31077        7.96455
H          3.21417        0.77641        5.07969
F          3.53119        1.45188        2.61086
