87
/cluster/projects/nn2506k/marcof/RuC_BondLength/evolutionary_desing/RUN28052021044732/Gen023/M00000156_I_DFT.out	Energy: -1258478.4672997
Ru        -0.12989        0.32483        0.18279
C         -0.46708       -0.43076        1.80098
C          1.80123        0.05705       -0.11538
Cl        -1.27222       -1.30466       -1.18336
Cl        -0.19858        2.63800        0.88007
H          0.20211       -0.99355        2.45547
H         -1.51013       -0.30454        2.15943
N          2.42573        0.45466       -1.31047
N          2.79012       -0.43437        0.73579
C          3.96156        0.49510       -1.16240
C          1.74303        0.60329       -2.60333
C          4.17419       -0.52158        0.04840
C          4.43605        1.93233       -0.81249
C          4.67338        0.07419       -2.46992
C          5.31766       -0.11529        1.01249
C          4.47856       -1.97381       -0.40854
H          5.18895        0.87432        1.45343
H          6.27002       -0.12453        0.46436
H          5.40516       -0.84536        1.82696
H          3.70072       -2.39531       -1.04532
H          4.59042       -2.62639        0.45995
H          5.43003       -1.99731       -0.95638
H          4.26025        2.60337       -1.65220
H          5.51588        1.93443       -0.61404
H          3.91982        2.34440        0.05751
H          4.36917       -0.90945       -2.83493
H          5.75960        0.05799       -2.30387
H          4.47761        0.80828       -3.26042
C          1.57539        1.87521       -3.26374
C          1.29618       -0.58744       -3.27379
C          0.86449        1.91520       -4.48799
C          2.15025        3.21855       -2.87914
C          0.34607        0.75835       -5.10099
H          0.70514        2.87621       -4.97228
C          0.59065       -0.48535       -4.49250
C         -0.41473        0.90688       -6.37983
H          0.22957       -1.39223       -4.97093
O         -0.87901       -0.32183       -6.85954
O         -0.62550        1.98936       -6.97393
C         -1.66470       -0.28421       -8.11168
H         -1.92981       -1.32945       -8.30417
H         -2.56500        0.33152       -7.98013
H         -1.06129        0.12714       -8.93274
C          3.11688        3.79772       -3.74816
C          1.68185        3.99056       -1.79163
C          3.62373        5.09248       -3.51451
H          3.47084        3.23244       -4.61208
C          3.16019        5.84598       -2.41372
H          4.36799        5.51241       -4.19388
C          2.18407        5.28934       -1.56040
H          3.54347        6.85208       -2.23381
H          1.79888        5.86516       -0.71697
H          0.92046        3.59287       -1.12928
C          1.59265       -1.99844       -2.79774
H          2.54940       -2.34901       -3.21896
H          0.81301       -2.68466       -3.14666
H          1.63793       -2.09042       -1.71554
C          2.66033       -0.73753        2.15765
C          2.56275       -2.09624        2.63251
C          2.71715        0.33901        3.10432
C          2.56231       -2.32274        4.03131
C          2.41284       -3.34569        1.80285
C          2.63159       -1.27067        4.96590
H          2.47031       -3.33976        4.40536
C          2.69289        0.05170        4.48814
C          2.61865       -1.61181        6.42318
H          2.72886        0.87434        5.19888
O          2.64991       -0.47073        7.22885
O          2.58642       -2.77322        6.89102
C          2.63433       -0.69544        8.69129
H          2.65954        0.30943        9.12625
H          1.72087       -1.22938        8.98682
H          3.51204       -1.28028        8.99896
C          3.26871       -4.45210        2.06260
C          1.37016       -3.51997        0.85887
C          3.09913       -5.68040        1.39412
H          4.07833       -4.34764        2.78666
C          2.05489       -5.83895        0.45669
H          3.77511       -6.51003        1.60909
C          1.19243       -4.75343        0.19735
H          1.91279       -6.79222       -0.05529
H          0.37073       -4.86019       -0.51251
H          0.67588       -2.71306        0.64731
C          2.81558        1.80846        2.73076
H          3.84179        2.18034        2.88244
H          2.15911        2.40364        3.37903
H          2.51437        2.01549        1.70652
