103
/cluster/projects/nn2506k/marcof/RuC_BondLength/evolutionary_desing/RUN28052021121055/Gen025/M00000178_I_DFT.out	Energy: -1077210.1630134
Ru         0.09783        0.47441        0.19861
C         -0.34840       -0.52723        1.64511
C          1.99869        0.10745       -0.18414
Cl        -1.07453       -0.86222       -1.45133
Cl         0.30689        2.58163        1.39852
H          0.25909       -1.22627        2.22243
H         -1.40027       -0.39184        1.97943
N          2.60291        0.65237       -1.31690
N          2.95640       -0.58754        0.53757
C          4.15543        0.56566       -1.24396
C          1.83887        1.20011       -2.45511
C          4.32622       -0.67420       -0.20797
C          4.65499        1.96524       -0.70327
C          4.82602        0.27474       -2.62521
C          5.55419       -0.46895        0.74168
C          4.41540       -2.11369       -0.85019
C          6.01950       -1.59957        1.70208
H          5.39507        0.43207        1.33916
H          6.40563       -0.25329        0.08165
C          7.28588       -1.17464        2.48434
H          6.25111       -2.51859        1.14767
H          5.23355       -1.85818        2.41819
H          7.09999       -0.28090        3.10132
H          7.61566       -1.98013        3.15913
H          8.12451       -0.94379        1.80703
C          5.71020       -2.62325       -1.55358
H          3.58039       -2.25713       -1.54134
H          4.23235       -2.79704       -0.01468
C          5.72364       -4.16874       -1.64702
H          6.61490       -2.29530       -1.02299
H          5.78887       -2.22276       -2.57146
H          4.84042       -4.54497       -2.18769
H          6.61768       -4.52176       -2.18503
H          5.72789       -4.63547       -0.64921
C          6.16695        2.34073       -0.63310
H          4.20485        2.15143        0.27969
H          4.20035        2.69245       -1.37916
C          6.35740        3.87637       -0.57178
H          6.71704        1.95304       -1.50261
H          6.64519        1.90681        0.25312
H          5.82468        4.31128        0.28885
H          7.42315        4.13596       -0.47020
H          5.97844        4.36923       -1.48099
C          4.90092        1.38198       -3.71317
H          4.35227       -0.60140       -3.07457
H          5.86182       -0.01679       -2.40124
C          5.66405        0.88149       -4.96299
H          5.41304        2.27559       -3.33134
H          3.89844        1.70088       -4.01656
H          5.16467        0.01222       -5.42011
H          5.71865        1.67145       -5.72828
H          6.69672        0.58337       -4.71748
C          1.51361        2.59320       -2.53403
C          1.45666        0.31389       -3.51457
C          1.85687        3.59269       -1.44151
C          0.80544        3.08288       -3.67482
H          2.20260        3.11420       -0.53015
H          0.97301        4.17873       -1.16206
H          2.62676        4.30750       -1.77570
C          0.47730        4.57076       -3.77570
C          0.39871        2.19880       -4.71162
H          1.21775        5.19169       -3.26019
H         -0.50343        4.80094       -3.32362
H          0.44526        4.91032       -4.81781
C         -0.45441        2.71115       -5.86928
C          0.75976        0.82378       -4.64630
H         -1.13307        1.93560       -6.24266
H          0.16241        3.04533       -6.72211
H         -1.07921        3.55906       -5.56707
C          0.37396       -0.11960       -5.78203
H         -0.61804       -0.57156       -5.60768
H          1.08620       -0.94535       -5.89054
H          0.33514        0.39800       -6.74786
C          1.71813       -1.18143       -3.45776
H          2.04221       -1.49105       -2.46846
H          2.47926       -1.49646       -4.19048
H          0.79929       -1.73788       -3.67610
C          2.72094       -1.25682        1.81559
C          2.26015       -2.61229        1.84084
C          2.96916       -0.54941        3.03243
C          1.71938       -3.30321        0.59331
C          2.18724       -3.29871        3.09081
H          0.71715       -3.70874        0.79287
H          2.34644       -4.14556        0.26494
H          1.61416       -2.61208       -0.24124
C          1.77257       -4.76804        3.13085
C          2.48528       -2.61536        4.30486
H          1.83433       -5.24403        2.14814
H          0.73496       -4.89255        3.48567
H          2.41677       -5.34530        3.80865
C          2.36492       -3.33116        5.64708
C          2.86091       -1.24117        4.27452
H          1.72455       -4.21694        5.59098
H          1.93931       -2.67438        6.41664
H          3.35058       -3.66313        6.01776
C          3.14454       -0.51405        5.58575
H          3.72306        0.40251        5.43842
H          3.70967       -1.14644        6.28378
H          2.20938       -0.22538        6.09635
C          3.28906        0.93732        3.04022
H          4.30692        1.14097        3.40921
H          2.59083        1.47674        3.69429
H          3.18449        1.37811        2.05137
