79
/cluster/projects/nn2506k/marcof/RuC_BondLength/evolutionary_desing/RUN28052021044948/Gen031/M00000196_I_DFT.out	Energy: -880012.7660973
Ru         0.04261        0.47547        0.20509
C         -0.34974       -0.48841        1.69302
C          1.93961        0.12393       -0.16336
Cl        -1.10520       -0.92290       -1.40146
Cl         0.25785        2.64460        1.26965
H          0.28972       -1.16290        2.26631
H         -1.39302       -0.36518        2.05640
N          2.54773        0.62781       -1.31571
N          2.91197       -0.52025        0.59088
C          4.08066        0.54529       -1.23993
C          1.84048        1.13640       -2.50162
C          4.27313       -0.58600       -0.13025
C          4.67014        1.91862       -0.80293
C          4.72388        0.20496       -2.60640
C          5.45684       -0.31779        0.83480
C          4.51609       -2.00680       -0.71767
H          5.38622        0.63788        1.35540
H          6.39765       -0.33136        0.26638
H          5.51653       -1.11325        1.58793
H          3.74204       -2.32299       -1.41979
H          4.56135       -2.73744        0.09739
H          5.48364       -2.03577       -1.23625
H          4.24479        2.28171        0.13801
H          4.47673        2.66591       -1.57801
H          5.75931        1.84425       -0.68686
H          4.38102       -0.74125       -3.02683
H          5.81606        0.15469       -2.49109
H          4.50520        0.99820       -3.33236
C          1.58039        2.53464       -2.66096
C          1.47633        0.21017       -3.53105
C          1.93120        3.56204       -1.59652
C          0.93321        2.99209       -3.84952
H          2.24651        3.10140       -0.66462
H          1.06045        4.18349       -1.35331
H          2.73033        4.24027       -1.93758
C          0.66423        4.48301       -4.04044
C          0.52856        2.06915       -4.85357
H          1.35837        5.10565       -3.46733
H         -0.35476        4.75544       -3.71419
H          0.76040        4.78033       -5.09241
C         -0.25840        2.55124       -6.06949
C          0.83440        0.68658       -4.70904
H         -0.82260        3.46493       -5.85357
H         -0.98526        1.79958       -6.40019
H          0.40102        2.76814       -6.92833
C          0.44962       -0.29767       -5.80963
H          1.13314       -1.15309       -5.85404
H          0.45897        0.17181       -6.80047
H         -0.56346       -0.70467       -5.64570
C          1.70802       -1.28583       -3.39410
H          0.78030       -1.83695       -3.58817
H          2.02621       -1.55282       -2.38921
H          2.46564       -1.64863       -4.10807
C          2.74257       -1.18124        1.88116
C          2.36269       -2.55994        1.92857
C          3.01123       -0.45278        3.08034
C          1.84655       -3.28926        0.69301
C          2.36410       -3.23758        3.18482
H          1.69331       -2.61082       -0.14515
H          0.87230       -3.75293        0.90450
H          2.52073       -4.09420        0.36342
C          2.02386       -4.72487        3.25124
C          2.67415       -2.52936        4.38183
H          2.72713       -5.26630        3.89949
H          2.05998       -5.20412        2.26889
H          1.01210       -4.89601        3.65730
C          2.63963       -3.23979        5.73175
C          2.98757       -1.14037        4.32933
H          2.22242       -2.59520        6.51597
H          3.65275       -3.53059        6.06073
H          2.03299       -4.15053        5.70780
C          3.29177       -0.39177        5.62368
H          3.92486       -0.98802        6.29493
H          2.36765       -0.15426        6.17878
H          3.80958        0.55523        5.44622
C          3.25108        1.04986        3.06037
H          4.26590        1.31196        3.39885
H          2.54357        1.56043        3.72834
H          3.09733        1.47215        2.06867
