37
/cluster/projects/nn2506k/marcof/RuC_BondLength/evolutionary_desing/RUN28052021044948/Gen017/M00000125_I_DFT.out	Energy: -534885.5494800
Ru        -0.12418       -0.03196       -0.08846
C         -0.36037       -0.45642        1.66331
C          1.80089        0.11270       -0.13410
Cl        -0.32322       -2.13351       -1.26896
Cl        -0.60026        2.32183        0.04216
H          0.39533       -0.46620        2.45712
H         -1.40394       -0.67026        1.97416
N          2.45674        0.85549       -1.11059
N          2.78270       -0.36728        0.73449
C          3.93964        0.82459       -0.95649
C          1.88189        1.42383       -2.30873
C          4.10682        0.27740        0.47264
H          4.38182        0.16203       -1.71935
H          4.36773        1.82729       -1.07403
H          4.29019        1.08739        1.19645
H          4.91240       -0.46227        0.55531
C          1.23107        0.59738       -3.25441
C          2.03777        2.80594       -2.56579
C          0.71346        1.16408       -4.43884
H          1.12776       -0.46987       -3.06904
C          0.86712        2.54183       -4.69787
H          0.19898        0.52351       -5.15681
C          1.53524        3.35948       -3.75858
H          0.46844        2.97569       -5.61616
H          1.64497        4.42902       -3.94465
H          2.50968        3.44701       -1.82134
C          2.69836       -1.39395        1.73846
C          3.23117       -1.15029        3.02944
C          2.16800       -2.67025        1.42847
C          3.22406       -2.17108        4.00210
H          3.63259       -0.16798        3.28033
C          2.67949       -3.43839        3.70094
H          3.63364       -1.97146        4.99375
C          2.15009       -3.67813        2.41360
H          2.67014       -4.22623        4.45553
H          1.72970       -4.65446        2.16723
H          1.76110       -2.86203        0.43890
