71
/cluster/projects/nn2506k/marcof/RuC_BondLength/evolutionary_desing/RUN28052021121055/Gen016/M00000133_I_DFT.out	Energy: -1048107.0710731
Ru         0.10295        0.85764       -0.09372
C         -0.41248        0.26137        1.54240
C          1.92710        0.20785       -0.27102
Cl        -1.27589       -0.55962       -1.47033
Cl         0.72776        3.14505        0.31354
H          0.04987       -0.53651        2.12718
H         -1.35617        0.69054        1.93925
N          2.59383        0.31909       -1.49638
N          2.85241       -0.24806        0.66094
C          4.12260        0.22972       -1.31444
C          1.92066        0.24698       -2.77842
C          4.19952       -0.64102        0.01668
C          4.68688        1.66160       -1.11051
C          4.81632       -0.40908       -2.53659
C          5.40288       -0.27368        0.91980
C          4.24252       -2.17448       -0.22540
H          5.40672        0.77310        1.23143
H          6.33420       -0.47151        0.37114
H          5.41736       -0.90527        1.81834
H          3.37706       -2.53189       -0.78494
H          4.27844       -2.70267        0.73525
H          5.15863       -2.44355       -0.76842
H          4.20847        2.17334       -0.26934
H          4.51042        2.25578       -2.00873
H          5.77088        1.62396       -0.93559
H          4.42447       -1.39783       -2.79127
H          5.89198       -0.50687       -2.33297
H          4.71034        0.24645       -3.41058
C          1.51806        1.35219       -3.59531
C          1.57953       -1.03540       -3.28093
C          0.80546        1.11135       -4.79828
C          1.85816        2.81777       -3.35484
C          0.49508       -0.18299       -5.26953
H          0.49448        1.96655       -5.39785
C         -0.30346       -0.39013       -6.54871
C          0.90855       -1.27593       -4.48184
C         -1.83470       -0.47147       -6.29479
H          0.02412       -1.31730       -7.04541
H         -0.10097        0.43387       -7.25115
H         -2.21123        0.45295       -5.83276
H         -2.08315       -1.30353       -5.62026
H         -2.37125       -0.62490       -7.24388
H          0.68913       -2.30485       -4.76399
C          0.71722        3.83257       -3.36516
O          3.05242        3.19470       -3.25933
H          0.55393        4.19308       -4.39501
H         -0.22313        3.41197       -2.99261
H          1.00551        4.69375       -2.75199
F          1.92781       -2.16868       -2.53022
C          2.68763       -0.29074        2.08916
C          2.37145       -1.47324        2.83643
C          2.96057        0.87082        2.85199
C          2.33998       -1.41765        4.25366
C          1.95240       -2.78051        2.18327
C          2.57104       -0.22846        4.98295
H          2.09168       -2.32164        4.80787
C          2.51663       -0.20762        6.50500
C          2.88665        0.93467        4.24954
C          3.90044       -0.44371        7.17091
H          1.81485       -0.97828        6.86036
H          2.11944        0.76102        6.84674
H          4.31824       -1.42190        6.88891
H          3.80580       -0.41748        8.26723
H          4.62397        0.33013        6.87423
H          3.08565        1.88677        4.74075
C          2.38025       -4.09626        2.84314
O          1.23798       -2.79280        1.15119
H          3.38695       -4.04539        3.27939
H          1.67630       -4.36667        3.64736
H          2.33641       -4.89277        2.09047
F          3.35491        2.03866        2.19305
