85
/cluster/projects/nn2506k/marcof/RuC_BondLength/evolutionary_desing/RUN28052021121055/Gen016/M00000130_I_DFT.out	Energy: -1091360.0409411
Ru        -0.21168        0.13357        0.00707
C         -0.56983       -0.90553        1.45299
C          1.72659        0.03282       -0.19972
Cl        -0.96601       -1.38273       -1.71676
Cl        -0.37571        2.28661        1.10056
H          0.12295       -1.46114        2.08850
H         -1.64724       -0.96530        1.71928
N          2.37508        0.69882       -1.24726
N          2.70770       -0.58827        0.56882
C          3.85240        0.38445       -1.27872
C          1.72715        1.28300       -2.42397
C          4.09408       -0.13887        0.15841
C          4.78850        1.50994       -1.72149
H          4.01316       -0.41295       -2.01409
C          5.21419       -1.17078        0.28760
H          4.38920        0.68118        0.82433
C          5.34657       -2.30853       -0.54279
N          6.13168       -0.87532        1.26076
C          6.44626       -3.16948       -0.35948
H          4.61131       -2.52352       -1.31533
C          7.39026       -2.87428        0.64660
H          6.56537       -4.05033       -0.99194
C          7.18875       -1.71666        1.42739
H          8.25583       -3.51437        0.81907
H          7.89398       -1.44185        2.21431
C          5.11336        2.63674       -0.93023
N          5.34333        1.31140       -2.95818
C          6.02396        3.58847       -1.42961
H          4.66665        2.77828        0.05173
C          6.58984        3.39447       -2.70725
H          6.28629        4.46283       -0.83237
C          6.21809        2.24126       -3.43010
H          7.29805        4.10791       -3.12933
H          6.63184        2.04322       -4.42092
C          1.40930        2.67369       -2.43327
C          1.51955        0.46618       -3.57504
C          1.76198        3.58200       -1.26639
C          0.76493        3.22208       -3.58209
H          2.16659        3.02043       -0.42527
H          0.88187        4.11661       -0.88993
H          2.50839        4.33197       -1.57273
C          0.38430        4.70016       -3.61375
C          0.47659        2.39612       -4.70634
H          0.60958        5.15604       -4.58793
H          0.91444        5.28235       -2.85494
H         -0.69481        4.84042       -3.42932
C         -0.29486        2.96288       -5.89532
C          0.90739        1.03844       -4.72471
H          0.37938        3.28404       -6.70864
H         -0.89995        3.83091       -5.61376
H         -0.98116        2.21786       -6.31787
C          0.70420        0.18119       -5.97003
H          1.53975       -0.51366       -6.12178
H          0.62267        0.78717       -6.87907
H         -0.21302       -0.42859       -5.89484
C          1.94072       -0.99526       -3.60964
H          2.08829       -1.40338       -2.60861
H          2.87550       -1.12052       -4.18206
H          1.17172       -1.61632       -4.08182
C          2.56332       -1.33268        1.81044
C          2.34566       -2.74108        1.75346
C          2.72687       -0.64963        3.04964
C          2.10407       -3.44672        0.42604
C          2.30291       -3.47864        2.97391
H          2.09062       -2.74593       -0.40884
H          1.13145       -3.96035        0.42233
H          2.87538       -4.20547        0.22447
C          2.07298       -4.98798        2.95186
C          2.47971       -2.81017        4.22161
H          2.81849       -5.51643        3.56416
H          2.13063       -5.40465        1.94299
H          1.07993       -5.25285        3.35260
C          2.40870       -3.59135        5.53085
C          2.71391       -1.40472        4.25714
H          1.89235       -4.54936        5.41608
H          1.87453       -3.02767        6.30717
H          3.41600       -3.80987        5.92636
C          2.94802       -0.70211        5.59097
H          3.45137       -1.35683        6.31255
H          1.99947       -0.37628        6.05293
H          3.57308        0.19044        5.47592
C          2.88288        0.86360        3.10109
H          2.27503        1.29427        3.90735
H          2.54799        1.33922        2.17691
H          3.93015        1.15451        3.28640
