79
/cluster/projects/nn2506k/marcof/RuC_BondLength/evolutionary_desing/RUN28052021121055/Gen018/M00000139_I_DFT.out	Energy: -880020.3901115
Ru        -0.14851       -0.18051       -0.18456
C         -0.52074       -1.02809        1.37757
C          1.79915       -0.25372       -0.36958
Cl        -0.80580       -1.90230       -1.74702
Cl        -0.39437        2.08859        0.61848
H          0.16490       -1.45472        2.11209
H         -1.60547       -1.08838        1.61427
N          2.42150        0.44496       -1.39641
N          2.80100       -0.88884        0.37200
C          3.89481        0.30063       -1.38117
C          1.80362        1.17174       -2.49954
C          4.20010       -0.43434       -0.05084
H          4.21787       -0.26861       -2.26247
H          4.37212        1.28741       -1.42696
C          5.40784       -1.45657       -0.16141
H          4.52476        0.30295        0.70005
C          5.79176       -2.05097        1.22618
C          5.17796       -2.61614       -1.16797
C          6.63295       -0.60840       -0.64436
H          5.93768       -1.26029        1.97732
H          6.73963       -2.60359        1.13870
H          5.03632       -2.74300        1.60939
H          4.34400       -3.25590       -0.86740
H          6.08060       -3.24391       -1.21576
H          4.98145       -2.25894       -2.18868
H          6.83203        0.23747        0.03248
H          6.49789       -0.21002       -1.65938
H          7.53400       -1.23872       -0.65893
C          1.68856        2.59029       -2.40848
C          1.45971        0.46915       -3.69247
C          2.24931        3.35459       -1.21827
C          1.06053        3.29371       -3.47561
H          2.58024        2.68375       -0.42357
H          1.49685        4.01665       -0.77385
H          3.10636        3.97809       -1.52549
C          0.89605        4.80827       -3.39695
C          0.57095        2.58270       -4.60985
H          0.98388        5.28111       -4.38357
H          1.64796        5.27075       -2.74897
H         -0.09197        5.08251       -2.98782
C         -0.21576        3.32207       -5.68828
C          0.82564        1.18721       -4.74742
H         -0.93659        2.66275       -6.18559
H          0.44437        3.73423       -6.47188
H         -0.78390        4.16075       -5.26882
C          0.40898        0.46150       -6.02310
H          0.98668       -0.45402       -6.18527
H          0.54183        1.09063       -6.91301
H         -0.65411        0.16650       -5.98542
C          1.79634       -1.00451       -3.87088
H          2.55395       -1.13274       -4.66254
H          0.91401       -1.58963       -4.15438
H          2.18301       -1.45312       -2.95457
C          2.60202       -1.54040        1.66062
C          2.28502       -2.93061        1.70673
C          2.76589       -0.77524        2.85359
C          1.99046       -3.71232        0.43463
C          2.18965       -3.57430        2.97759
H          2.03971       -3.07933       -0.45082
H          0.97553       -4.13422        0.46122
H          2.68813       -4.55322        0.29926
C          1.85619       -5.06209        3.06187
C          2.40725       -2.83187        4.17586
H          2.58699       -5.60360        3.68115
H          1.84365       -5.54431        2.08150
H          0.86421       -5.22842        3.51398
C          2.30321       -3.50976        5.53906
C          2.70325       -1.43884        4.11252
H          3.30077       -3.69370        5.97436
H          1.79048       -4.47461        5.48893
H          1.75192       -2.88687        6.25680
C          2.93714       -0.65451        5.40024
H          3.45343       -1.26100        6.15501
H          1.98662       -0.31867        5.85072
H          3.54680        0.23998        5.23308
C          2.94683        0.73711        2.80812
H          2.67395        1.15302        1.83650
H          3.98181        1.04131        3.03817
H          2.29726        1.22683        3.54591
