100
/cluster/projects/nn2506k/marcof/RuC_BondLength/evolutionary_desing/RUN28052021044732/Gen018/M00000132_I_DFT.out	Energy: -1133594.0717265
Ru        -0.09779       -0.00816       -0.03682
C         -0.42153       -0.64546        1.63266
C          1.82109       -0.28645       -0.35403
Cl        -1.10568       -1.83338       -1.26808
Cl        -0.10509        2.34756        0.53845
H          0.26364       -1.10847        2.34468
H         -1.47771       -0.53441        1.96180
N          2.42342        0.23061       -1.50126
N          2.80925       -0.91291        0.39754
C          3.91964        0.21982       -1.35839
C          1.73609        0.95389       -2.57165
C          4.18637       -0.96556       -0.33946
C          4.70971        0.29062       -2.66355
H          4.19252        1.13367       -0.80815
C          5.40997       -0.56067        0.54980
C          4.36902       -2.38167       -0.98028
C          5.96517       -1.52969        1.62717
H          6.22682       -0.35990       -0.16289
H          5.19079        0.40172        1.03044
C          7.31502       -1.02790        2.20127
H          5.25134       -1.63954        2.45048
H          6.11458       -2.53580        1.21182
C          7.88599       -1.94769        3.30330
H          7.18441       -0.01036        2.61105
H          8.05336       -0.93849        1.38419
H          7.19004       -2.03026        4.15335
H          8.84238       -1.56095        3.68926
H          8.06662       -2.96500        2.92047
C          5.73478       -2.75542       -1.61981
H          4.17633       -3.11206       -0.18672
H          3.58684       -2.51907       -1.73667
C          5.68193       -4.15982       -2.27435
H          6.02983       -2.02936       -2.38497
H          6.53333       -2.75683       -0.86367
C          7.02866       -4.59553       -2.89329
H          4.90255       -4.16566       -3.05549
H          5.37099       -4.90550       -1.52093
H          6.95017       -5.59314       -3.35366
H          7.82438       -4.64077       -2.13207
H          7.35463       -3.89115       -3.67553
C          5.76097        1.23623       -2.77348
N          4.38155       -0.53594       -3.70023
C          6.49877        1.32284       -3.97118
H          5.99371        1.89884       -1.93977
C          6.15651        0.47386       -5.04358
H          7.31214        2.04342       -4.06753
C          5.08979       -0.43174       -4.85631
H          6.68959        0.51254       -5.99381
H          4.78504       -1.10429       -5.66118
C          1.77557        2.38142       -2.58499
C          1.10844        0.21965       -3.62417
C          2.50707        3.17626       -1.51250
C          1.10993        3.08134       -3.63000
H          2.65195        2.59548       -0.60094
H          1.93243        4.06044       -1.21656
H          3.49011        3.52480       -1.87396
C          1.17709        4.60513       -3.67789
C          0.36887        2.36425       -4.61267
H          0.40738        5.06577       -3.03416
H          1.02893        4.99037       -4.69311
H          2.14910        4.97868       -3.33217
C         -0.45951        3.12600       -5.64418
C          0.40059        0.94050       -4.63225
H          0.14988        3.44747       -6.50727
H         -0.90934        4.02806       -5.21033
H         -1.28062        2.51685       -6.03664
C         -0.32325        0.18729       -5.74531
H         -0.17195        0.66316       -6.72441
H         -1.41106        0.15491       -5.56175
H          0.01369       -0.84903       -5.83243
C          1.20704       -1.29343       -3.71936
H          1.75699       -1.57925       -4.62836
H          0.21680       -1.76143       -3.74949
H          1.74377       -1.71655       -2.87308
C          2.62236       -1.46938        1.73113
C          2.24606       -2.83780        1.89202
C          2.82088       -0.62087        2.86569
C          1.78566       -3.68933        0.71608
C          2.19924       -3.38816        3.20702
H          1.68787       -3.10643       -0.19837
H          0.79440       -4.11614        0.92488
H          2.46353       -4.53332        0.51526
C          1.84577       -4.85851        3.40753
C          2.45374       -2.56777        4.34382
H          2.01001       -5.45216        2.50301
H          0.78556       -4.98553        3.68843
H          2.44524       -5.31180        4.20815
C          2.37219       -3.18402        5.73722
C          2.74532       -1.18198        4.17548
H          2.31727       -2.43108        6.52835
H          3.25209       -3.81598        5.94837
H          1.48761       -3.82795        5.84013
C          2.97834       -0.30552        5.40452
H          2.05699       -0.18930        5.99903
H          3.31852        0.69981        5.14477
H          3.73803       -0.74204        6.07039
C          3.04789        0.87679        2.70338
H          2.97746        1.18895        1.66203
H          4.02900        1.19151        3.09200
H          2.28266        1.44571        3.25052
