97
/cluster/projects/nn2506k/marcof/RuC_BondLength/evolutionary_desing/RUN28052021121055/Gen036/M00000233_I_DFT.out	Energy: -1152447.7939044
Ru         0.11594        0.56558        0.11569
C         -0.34606       -0.04567        1.76040
C          1.99789        0.12143       -0.18497
Cl        -0.96210       -1.14106       -1.21654
Cl         0.45262        2.87743        0.76275
H          0.24579       -0.56015        2.51883
H         -1.40325        0.17270        2.02852
N          2.60523        0.47662       -1.39104
N          2.96308       -0.44195        0.62839
C          4.15402        0.46050       -1.26907
C          1.85273        0.64169       -2.62639
C          4.31911       -0.66153       -0.11506
C          4.54322        1.92638       -0.82330
C          4.86942        0.05439       -2.59365
C          5.56198       -0.39320        0.79373
C          4.30763       -2.16193       -0.59901
C          6.00779       -1.44374        1.84940
H          5.42563        0.56155        1.30785
H          6.41162       -0.25626        0.10942
C          7.25887       -0.95686        2.61921
H          6.24607       -2.40422        1.37318
H          5.20901       -1.64579        2.57194
H          7.05855       -0.01915        3.16134
H          7.57961       -1.70749        3.35848
H          8.10728       -0.77535        1.93935
C          5.55020       -2.80266       -1.28853
H          3.43565       -2.31891       -1.24058
H          4.12886       -2.74395        0.31148
C          5.48387       -4.34850       -1.24344
H          6.48773       -2.47533       -0.81623
H          5.61427       -2.50056       -2.34047
H          4.56050       -4.72117       -1.71431
H          6.33580       -4.79294       -1.78208
H          5.50849       -4.72757       -0.20950
C          6.02667        2.39441       -0.74310
H          4.05157        2.14109        0.13377
H          4.05977        2.57679       -1.55830
C          6.11961        3.93916       -0.69215
H          6.60760        2.03326       -1.60452
H          6.52253        1.99856        0.15094
H          5.55637        4.34272        0.16395
H          7.16640        4.26646       -0.58873
H          5.71300        4.40142       -1.60545
C          4.95033        1.05177       -3.78109
H          4.41829       -0.86887       -2.96854
H          5.90344       -0.19766       -2.31708
C          5.77324        0.45743       -4.94878
H          5.41526        1.99767       -3.47279
H          3.94899        1.29905       -4.15078
H          5.32111       -0.47342       -5.32672
H          5.82606        1.16633       -5.78984
H          6.80645        0.22730       -4.64123
C          1.34640        1.87886       -3.14378
C          1.57735       -0.51978       -3.39858
C          1.55166        3.24660       -2.49668
C          0.58240        1.84843       -4.34032
C          2.34693        4.25715       -3.36644
H          2.02433        3.14886       -1.51940
H          0.56057        3.68019       -2.29310
H          2.43498        5.21375       -2.82842
H          1.84652        4.46023       -4.32440
H          3.36173        3.90053       -3.59135
C          0.31164        0.67479       -5.07329
H          0.17568        2.79266       -4.70473
C         -0.56664        0.69828       -6.31685
C          0.84586       -0.53785       -4.58470
C         -2.06648        0.44248       -5.99970
H         -0.22029       -0.06481       -7.03239
H         -0.47061        1.67292       -6.82130
H         -2.46366        1.20832       -5.31723
H         -2.21051       -0.53652       -5.51984
H         -2.66333        0.46382       -6.92488
H          0.67343       -1.48885       -5.08684
F          2.06311       -1.76467       -2.95171
C          2.76098       -0.76100        2.02112
C          2.23657       -2.00745        2.49155
C          3.08675        0.21068        3.00124
C          1.67268       -3.08277        1.56051
C          2.13021       -2.20619        3.89309
C          2.21766       -4.51621        1.78299
H          1.81302       -2.79431        0.51658
H          0.57969       -3.10831        1.70660
H          3.30862       -4.56626        1.65792
H          1.76189       -5.20041        1.05100
H          1.97925       -4.90203        2.78468
C          2.48821       -1.23100        4.85078
H          1.72677       -3.15456        4.24835
C          2.31160       -1.48368        6.34309
C          2.96959        0.01186        4.37901
C          0.93902       -1.00023        6.88780
H          3.11279       -0.97484        6.90257
H          2.41664       -2.56039        6.54995
H          0.10722       -1.51786        6.38691
H          0.80579        0.08049        6.73110
H          0.86319       -1.19967        7.96793
H          3.24423        0.81878        5.05750
F          3.56555        1.46562        2.58274
