80
/cluster/projects/nn2506k/marcof/RuC_BondLength/evolutionary_desing/RUN28052021044732/Gen033/M00000205_I_DFT.out	Energy: -933396.2282757
Ru        -0.08076       -0.19703       -0.13157
C         -0.38230       -0.81562        1.54961
C          1.86364       -0.26921       -0.34704
Cl        -0.74592       -2.16972       -1.36496
Cl        -0.43419        2.14891        0.34247
H          0.33838       -1.13461        2.30540
H         -1.45468       -0.85330        1.83900
N          2.47867        0.25374       -1.49238
N          2.86591       -0.78051        0.47082
C          3.97555        0.36525       -1.28292
C          1.79907        0.94007       -2.59148
C          4.24716       -0.75754       -0.21324
C          4.84006        0.38678       -2.52007
H          4.14856        1.31955       -0.76134
C          5.39136       -0.33142        0.73514
C          4.59356       -2.14629       -0.80563
H          5.52704       -1.05825        1.54536
H          5.21987        0.65425        1.17948
H          6.32761       -0.28679        0.16164
H          3.81975       -2.51514       -1.48664
H          4.71680       -2.87378        0.00376
H          5.54275       -2.09063       -1.35213
C          4.97426       -0.47510       -3.59743
S          5.99773        1.78291       -2.70689
C          5.96144       -0.07662       -4.56477
H          4.38223       -1.37597       -3.71063
C          6.60802        1.10226       -4.24270
H          6.17952       -0.64686       -5.46595
H          7.38877        1.62697       -4.78259
C          1.71486        2.36471       -2.58032
C          1.30838        0.17831       -3.69523
C          2.29572        3.19710       -1.44689
C          1.06956        3.02646       -3.66225
H          2.43869        2.61073       -0.53844
H          1.61999        4.01443       -1.17330
H          3.26111        3.64540       -1.73637
C          1.00706        4.55059       -3.67850
C          0.47069        2.27096       -4.71070
H          0.87709        4.94663       -4.69161
H          1.92468        4.99666       -3.27475
H          0.16911        4.92716       -3.06626
C         -0.32701        2.98652       -5.79753
C          0.61865        0.85449       -4.74513
H         -0.92355        3.80800       -5.37963
H         -1.02283        2.31303       -6.30773
H          0.33117        3.42195       -6.56968
C          0.03837        0.06657       -5.91706
H          0.40735       -0.96151       -5.95510
H          0.28187        0.53565       -6.88133
H         -1.06143        0.00813       -5.85176
C          1.52758       -1.32342       -3.79107
H          0.57845       -1.86611       -3.86514
H          2.03949       -1.71371       -2.91142
H          2.12634       -1.57016       -4.68215
C          2.73324       -1.31033        1.82174
C          2.51751       -2.70729        2.02626
C          2.87023       -0.41358        2.92734
C          2.15664       -3.63907        0.87711
C          2.54625       -3.22020        3.35653
H          2.93834       -4.38987        0.68344
H          1.96949       -3.09491       -0.04736
H          1.23379       -4.18911        1.10937
C          2.36147       -4.71435        3.60313
C          2.72650       -2.34337        4.46514
H          3.01846       -5.07466        4.40581
H          2.57945       -5.31218        2.71282
H          1.32592       -4.95038        3.90469
C          2.72585       -2.92025        5.87756
C          2.87584       -0.94137        4.25313
H          2.56677       -2.15568        6.64334
H          3.68347       -3.41856        6.10805
H          1.93689       -3.67421        6.00355
C          3.04273       -0.01061        5.45241
H          2.11833        0.04800        6.05096
H          3.29767        1.01067        5.15896
H          3.83971       -0.36231        6.12428
C          2.93860        1.09425        2.71793
H          3.88684        1.51996        3.08088
H          2.12684        1.59808        3.26264
H          2.82460        1.36645        1.66891
