72
/cluster/projects/nn2506k/marcof/RuC_BondLength/evolutionary_desing/RUN28052021044732/Gen022/M00000152_I_DFT.out	Energy: -1122121.8148933
Ru        -0.15181       -0.29310        0.41800
C          0.26147       -0.70153        2.14089
C          1.68158        0.05109       -0.19221
Cl        -0.79030       -2.48393       -0.36441
Cl        -1.03544        1.93565        0.47402
H          1.26081       -0.95759        2.50089
H         -0.58355       -0.80112        2.85092
N          2.69727        0.73973        0.46467
N          2.21991       -0.41642       -1.38994
C          3.99169        0.72588       -0.28057
C          2.65097        1.50057        1.69244
C          3.71298       -0.17166       -1.50947
H          4.78963        0.29908        0.34014
H          4.25102        1.75097       -0.55816
C          4.22879        0.39121       -2.83790
H          4.22484       -1.13422       -1.39596
C          3.92600        1.68614       -3.32220
N          5.07832       -0.45821       -3.49491
C          4.50925        2.10555       -4.53474
H          3.24545        2.33420       -2.78149
C          5.37822        1.23366       -5.22542
H          4.28597        3.09714       -4.93133
C          5.63335       -0.03540       -4.66392
H          5.84688        1.52529       -6.16604
H          6.30146       -0.74575       -5.15492
C          2.17075        2.85082        1.70436
C          3.20646        0.96398        2.90107
C          2.05938        3.53343        2.93967
C          1.95485        3.68413        0.44759
C          2.50388        2.97972        4.15898
H          1.64277        4.53942        2.94685
C          2.33367        3.72554        5.47014
C          3.12796        1.71889        4.10032
H          1.30204        3.62365        5.84588
H          2.53007        4.80136        5.35316
H          3.00632        3.34107        6.24893
H          3.53878        1.29890        5.01693
C          0.94833        4.83102        0.45759
O          2.69822        3.51228       -0.55289
H          0.07906        4.63054        1.09060
H          1.44286        5.75649        0.79922
H          0.61542        4.99666       -0.57364
C          3.91119       -0.37786        2.97216
C          5.06952       -0.53538        3.96283
O          3.58482       -1.35354        2.24529
H          5.66407       -1.40631        3.66260
H          5.70926        0.35624        4.00970
H          4.68745       -0.72967        4.97855
C          1.53838       -1.15748       -2.43145
C          1.94600       -2.49043       -2.73958
C          0.50528       -0.55150       -3.21795
C          1.35671       -3.16331       -3.83627
C          2.95703       -3.35652       -1.98397
C          0.30960       -2.60377       -4.59466
H          1.72164       -4.16292       -4.07037
C         -0.34870       -3.38264       -5.71953
C         -0.11045       -1.30587       -4.24863
H         -1.04450       -4.13797       -5.31795
H          0.39594       -3.91815       -6.32676
H         -0.92346       -2.72658       -6.38766
H         -0.91670       -0.85183       -4.82189
C          2.84822       -3.52395       -0.47740
O          3.77460       -4.04653       -2.65035
H          2.87038       -2.58408        0.07860
H          1.87637       -3.98799       -0.24668
H          3.65682       -4.17757       -0.12976
C          0.05716        0.89414       -3.09530
C         -1.40813        1.23313       -3.39240
O          0.85975        1.81813       -2.80647
H         -2.10033        0.44653       -3.06582
H         -1.65047        2.17103       -2.88104
H         -1.55086        1.39254       -4.47400
