97
/cluster/projects/nn2506k/marcof/RuC_BondLength/evolutionary_desing/RUN28052021044732/Gen012/M00000094_I_DFT.out	Energy: -1401493.4796785
Ru        -0.00941        0.51343        0.22986
C         -0.51418       -0.59843        1.57421
C          1.88234        0.09059       -0.14703
Cl        -1.31370       -0.52313       -1.52059
Cl         0.13606        2.56659        1.48117
H          0.02439       -1.42057        2.04493
H         -1.54605       -0.42458        1.94402
N          2.49347        0.49597       -1.33952
N          2.86113       -0.50852        0.64359
C          4.05409        0.42898       -1.27330
C          1.74728        0.80927       -2.56006
C          4.23972       -0.66994       -0.08974
C          4.55920        1.88519       -0.93385
C          4.70949       -0.04564       -2.61109
C          5.46060       -0.32555        0.82673
C          4.35209       -2.17125       -0.55509
C          5.94231       -1.31271        1.92693
H          6.30708       -0.19425        0.14014
H          5.29627        0.64887        1.29271
C          7.23447       -0.79564        2.61243
H          5.17841       -1.45997        2.69791
H          6.15226       -2.30434        1.50509
C          7.75861       -1.74477        3.71275
H          7.04650        0.19979        3.05241
H          8.02285       -0.65206        1.85205
H          8.67441       -1.34678        4.17713
H          7.99675       -2.73936        3.30301
H          7.01160       -1.88302        4.51056
C          5.66155       -2.74179       -1.18405
H          4.18586       -2.75692        0.35224
H          3.52033       -2.40741       -1.22134
C          5.71234       -4.28888       -1.07222
H          5.73522       -2.48135       -2.24711
H          6.55875       -2.32731       -0.70222
C          6.95579       -4.90410       -1.75127
H          4.80115       -4.71770       -1.52385
H          5.69287       -4.58486       -0.00974
H          6.95901       -6.00060       -1.64997
H          7.88802       -4.52486       -1.30198
H          6.98411       -4.66888       -2.82749
C          6.07317        2.26113       -0.93586
H          4.10358        2.51910       -1.69585
H          4.11998        2.20826        0.01464
C          6.26631        3.79464       -1.07892
H          6.56519        1.94813       -0.00666
H          6.61266        1.76363       -1.75525
C          7.74755        4.22762       -1.01425
H          5.70127        4.30856       -0.28213
H          5.82714        4.13612       -2.03119
H          7.84425        5.31931       -1.12117
H          8.33834        3.76024       -1.81885
H          8.20834        3.94481       -0.05386
C          4.78442        0.89848       -3.84329
H          5.74578       -0.29958       -2.35142
H          4.24045       -0.97937       -2.93088
C          5.58747        0.24396       -4.99775
H          3.78538        1.14792       -4.21636
H          5.26666        1.85048       -3.58558
C          5.69118        1.14376       -6.24907
H          5.11479       -0.71378       -5.27939
H          6.60445       -0.00547       -4.64510
H          6.26678        0.64940       -7.04732
H          6.19243        2.09672       -6.01600
H          4.69442        1.38191       -6.65292
C          1.40464        2.14485       -2.96944
C          1.36082       -0.27389       -3.41951
C          1.65726        3.44186       -2.22481
C          0.77692        2.37471       -4.21929
F          1.97796        3.35141       -0.87376
F          0.53723        4.31069       -2.29677
F          2.72959        4.19099       -2.83632
C          0.46197        1.31281       -5.07551
H          0.52506        3.39268       -4.50905
C          0.74113        0.00426       -4.66071
H         -0.01983        1.50522       -6.03420
H          0.45345       -0.83449       -5.29591
C          1.54238       -1.74231       -3.07939
H          2.45402       -2.15532       -3.53883
H          0.69294       -2.31358       -3.47366
H          1.57323       -1.92286       -2.00767
C          2.66694       -0.90205        2.03142
C          2.31254       -2.24212        2.42120
C          2.88122        0.06416        3.06836
C          1.86656       -3.38049        1.51917
C          2.28742       -2.61049        3.78945
F          1.52379       -3.05534        0.20296
F          0.70950       -4.02439        2.05115
F          2.84110       -4.42650        1.43672
C          2.54791       -1.66702        4.79314
H          2.02952       -3.63154        4.06418
C          2.80962       -0.34030        4.42494
H          2.51892       -1.96080        5.84249
H          2.97184        0.41238        5.19814
C          3.19969        1.52808        2.82629
H          2.53781        2.15506        3.43717
H          3.04998        1.83632        1.79495
H          4.23576        1.75401        3.12491
