101
/cluster/projects/nn2506k/marcof/RuC_BondLength/evolutionary_desing/RUN28052021044948/Gen016/M00000120_I_DFT.out	Energy: -1076507.3103587
Ru         0.15643        0.55851        0.03555
C         -0.33262       -0.01207        1.68870
C          2.03741        0.05163       -0.15254
Cl        -0.89656       -1.18216       -1.26988
Cl         0.44180        2.90976        0.50967
H          0.25289       -0.54143        2.44308
H         -1.38830        0.21634        1.95240
N          2.72099        0.31993       -1.33444
N          2.93758       -0.55910        0.71644
C          4.12048       -0.16730       -1.31608
C          2.20218        0.92334       -2.55425
C          4.34543       -0.67687        0.13690
H          4.80622        0.64756       -1.57920
H          4.25013       -0.96910       -2.05746
C          4.96781       -2.10465        0.17313
C          5.43667        0.14808        0.88999
C          6.48075       -1.88099       -0.09702
H          4.50452       -2.78541       -0.55176
H          4.82724       -2.53255        1.17377
C          6.78432       -0.41356        0.36296
H          7.09130       -2.61730        0.44534
H          6.71189       -2.00427       -1.16583
H          7.15911        0.18441       -0.48124
H          7.55848       -0.37751        1.14295
H          5.35180       -0.04482        1.96624
H          5.33170        1.22922        0.73227
C          2.30949        2.33385       -2.75401
C          1.69474        0.07904       -3.59007
C          3.04185        3.26995       -1.79793
C          1.75667        2.88247       -3.93525
C          4.40362        3.77836       -2.35765
H          2.40357        4.14105       -1.58947
H          3.20633        2.78471       -0.83078
C          5.13318        4.73067       -1.37945
H          5.05890        2.92043       -2.58887
H          4.23827        4.30069       -3.31442
C          6.48236        5.25244       -1.92204
H          5.30199        4.21122       -0.41923
H          4.47566        5.58742       -1.15064
H          7.17949        4.42399       -2.12816
H          6.96819        5.92636       -1.19866
H          6.34479        5.81311       -2.86053
C          1.15716        2.08661       -4.93399
H          1.79966        3.96466       -4.07347
C          0.50180        2.71520       -6.15652
C          1.16907        0.68539       -4.75235
C         -1.00810        3.03205       -5.94256
H          1.02266        3.64986       -6.42258
H          0.59914        2.03979       -7.02258
C         -1.67718        3.66708       -7.18466
H         -1.53736        2.10256       -5.67361
H         -1.11584        3.70975       -5.07904
C         -3.17503        3.98286       -6.97509
H         -1.56569        2.98637       -8.04751
H         -1.14297        4.59615       -7.45261
H         -3.74571        3.07015       -6.74068
H         -3.61746        4.43254       -7.87830
H         -3.32072        4.68962       -6.14265
H          0.75485        0.04311       -5.53202
C          1.75993       -1.43848       -3.52719
H          2.70965       -1.79811       -3.96099
H          0.94474       -1.88589       -4.10957
H          1.67605       -1.82237       -2.50782
C          2.65487       -1.05175        2.05391
C          2.83285       -0.19104        3.18132
C          2.21096       -2.40319        2.23760
C          3.13896        1.29618        3.07083
C          2.64268       -0.72517        4.47803
H          2.36090        1.87552        3.58966
H          3.16209        1.65115        2.03976
H          4.09975        1.54275        3.54941
C          2.25734       -2.06465        4.69532
H          2.77742       -0.06252        5.33588
C          2.09403       -2.62128        6.10396
C          2.02508       -2.87157        3.55948
C          3.39918       -3.25165        6.67333
H          1.76544       -1.82004        6.78595
H          1.30199       -3.38794        6.11243
C          3.22571       -3.81789        8.10292
H          3.73709       -4.05612        5.99817
H          4.19792       -2.49051        6.67441
C          4.51799       -4.44329        8.67362
H          2.42412       -4.57761        8.09920
H          2.88353       -3.01139        8.77536
H          4.86855       -5.27842        8.04618
H          4.35459       -4.83450        9.69024
H          5.33083       -3.70139        8.72739
H          1.66930       -3.89111        3.70905
C          1.81869       -3.31106        1.06937
C          2.35941       -4.76592        1.11291
H          0.71649       -3.35443        1.03482
H          2.11480       -2.85081        0.12188
C          1.92914       -5.59172       -0.12433
H          3.45997       -4.75616        1.18077
H          1.99926       -5.28159        2.01768
C          2.43942       -7.04941       -0.09495
H          2.29369       -5.09646       -1.04170
H          0.82759       -5.59145       -0.19578
H          3.54024       -7.08874       -0.05872
H          2.11423       -7.60158       -0.99072
H          2.05687       -7.58900        0.78643
