75
/cluster/projects/nn2506k/marcof/RuC_BondLength/evolutionary_desing/RUN28052021044948/Gen016/M00000119_I_DFT.out	Energy: -899370.7759186
Ru         0.10035       -1.09230        0.22144
C         -0.46244       -0.24866        1.73002
C          1.83558       -0.24142       -0.14955
Cl         0.66951       -3.20133        1.27393
Cl        -1.36128       -0.05799       -1.39652
H          0.06260        0.50639        2.32178
H         -1.45759       -0.56637        2.10624
N          2.60888        0.62618        0.61433
N          2.55416       -0.50462       -1.32933
C          3.86682        1.01786       -0.08546
C          2.36039        1.33766        1.85368
C          3.97884        0.03927       -1.28168
H          4.70774        0.92809        0.60953
H          3.79063        2.06633       -0.41490
C          4.51157        0.72518       -2.57184
C          5.07756       -1.04903       -1.04812
C          6.04742        0.82220       -2.35992
H          4.04756        1.69928       -2.75719
H          4.28946        0.08477       -3.43400
C          6.41592       -0.33092       -1.36513
H          6.58342        0.72905       -3.31572
H          6.32410        1.79965       -1.93584
H          6.87389        0.07764       -0.45175
H          7.14558       -1.03115       -1.79725
H          4.92102       -1.86694       -1.76022
H          5.04555       -1.46912       -0.03571
C          3.11646        1.00009        3.03314
C          1.54517        2.50943        1.84703
N          4.04425       -0.08624        3.04554
C          2.97995        1.82725        4.18112
C          5.19361       -0.00900        3.96591
C          3.52790       -1.46623        2.89926
H          5.62717        0.99954        3.95676
H          5.96347       -0.71617        3.62093
H          4.94825       -0.27694        5.01472
H          2.67522       -1.50115        2.22519
H          3.20070       -1.88047        3.87425
H          4.31588       -2.12286        2.50013
C          2.14941        2.96534        4.20004
H          3.52253        1.56170        5.08661
C          2.04164        3.83106        5.44540
C          1.43823        3.28773        3.02407
H          1.08453        4.37013        5.48182
H          2.84493        4.58709        5.47260
H          2.12772        3.23246        6.36389
H          0.79989        4.17208        3.00947
C          0.80629        2.97709        0.60396
H          1.50003        3.17472       -0.22579
H          0.26639        3.91065        0.80848
H          0.07756        2.23943        0.24717
C          2.04811       -1.29401       -2.45071
C          2.12781       -2.72159       -2.41077
C          1.53704       -0.65067       -3.65250
C          2.80759       -3.51428       -1.30299
C          1.61900       -3.49179       -3.48497
H          2.16708       -4.34163       -0.97592
H          3.04049       -2.92462       -0.41828
H          3.74335       -3.95434       -1.68542
C          1.04851       -2.89272       -4.62180
H          1.67682       -4.57921       -3.41662
C          0.43109       -3.72937       -5.73052
C          1.03457       -1.48752       -4.68802
H          0.85495       -4.74328       -5.75602
H          0.58083       -3.27173       -6.71969
H         -0.65687       -3.83301       -5.58040
H          0.57881       -1.01949       -5.55747
N          1.59567        0.74337       -3.91847
C          1.62172        1.20292       -5.31612
C          1.10747        1.78570       -3.00246
H          2.23959        0.53969       -5.93503
H          2.06938        2.20893       -5.34327
H          0.61620        1.27872       -5.77765
H          1.79568        2.64881       -3.00448
H          1.00880        1.40227       -1.99474
H          0.10810        2.14497       -3.30906
