79
/cluster/projects/nn2506k/marcof/RuC_BondLength/evolutionary_desing/RUN28052021044948/Gen018/M00000130_I_DFT.out	Energy: -1021183.0694876
Ru         0.02017       -1.08621        0.37336
C         -0.49998       -0.16389        1.85019
C          1.74885       -0.27371       -0.10001
Cl         0.63728       -3.13556        1.51305
Cl        -1.48722       -0.12782       -1.24608
H          0.03694        0.62034        2.39001
H         -1.48568       -0.46199        2.26556
N          2.55732        0.61137        0.60429
N          2.43639       -0.60628       -1.28046
C          3.79266        0.95998       -0.15312
C          2.32454        1.38334        1.81245
C          3.87827       -0.10514       -1.27415
H          4.65887        0.93054        0.51524
H          3.70063        1.97905       -0.56163
C          4.43377        0.47821       -2.60146
C          4.94136       -1.20853       -0.95938
C          5.96780        0.55763       -2.37380
H          3.99154        1.44443       -2.86231
H          4.21694       -0.21942       -3.42037
C          6.30269       -0.55759       -1.32520
H          6.51419        0.41704       -3.31767
H          6.25329        1.54843       -1.98847
H          6.78856       -0.12560       -0.43794
H          6.99817       -1.30709       -1.73013
H          4.75929       -2.06795       -1.61434
H          4.89569       -1.55739        0.07847
C          3.03733        1.06750        3.01093
C          1.52917        2.57026        1.74658
C          2.87576        1.91175        4.13942
C          3.99685       -0.08097        3.15683
C          2.04983        3.05478        4.11907
H          3.40346        1.64961        5.05665
C          1.85939        3.91139        5.35934
C          1.39953        3.37022        2.90499
H          0.97263        3.58639        5.92944
H          1.70931        4.96990        5.10183
H          2.72315        3.84442        6.03568
H          0.77998        4.26713        2.85020
C          5.34614        0.18539        3.51755
C          3.58821       -1.43156        3.02937
C          6.26084       -0.86590        3.73556
H          5.67984        1.21925        3.62345
C          5.84069       -2.20800        3.60703
H          7.29317       -0.63777        4.00814
C          4.50147       -2.48319        3.25534
H          6.54373       -3.02424        3.78337
H          4.15695       -3.51435        3.16237
H          2.55972       -1.67131        2.77474
C          0.82236        3.00681        0.47569
H          1.50635        3.04019       -0.38171
H          0.39310        4.00961        0.60025
H          0.00546        2.32367        0.20836
C          1.87208       -1.41943       -2.35902
C          1.88091       -2.84745       -2.26461
C          1.34219       -0.79894       -3.54804
C          2.59155       -3.64292       -1.18035
C          1.24334       -3.61140       -3.27443
H          1.94713       -4.44770       -0.80742
H          2.88545       -3.04562       -0.31932
H          3.49492       -4.11396       -1.60242
C          0.63732       -3.02457       -4.39885
H          1.23089       -4.69754       -3.16418
C         -0.10193       -3.85656       -5.43183
C          0.73522       -1.62278       -4.52646
H         -1.18764       -3.83959       -5.23818
H          0.21819       -4.90777       -5.41275
H          0.05101       -3.47072       -6.45060
H          0.29729       -1.13979       -5.39981
C          1.42809        0.65978       -3.92115
C          2.02332        0.99362       -5.17058
C          0.88301        1.71370       -3.14876
C          2.08642        2.32674       -5.62252
H          2.45355        0.20191       -5.78572
C          1.54340        3.36686       -4.83723
H          2.55502        2.55065       -6.58290
C          0.93881        3.04899       -3.60281
H          1.58119        4.40060       -5.18587
H          0.48905        3.83861       -2.99769
H          0.36687        1.48223       -2.22513
