67
/cluster/projects/nn2506k/marcof/RuC_BondLength/evolutionary_desing/RUN28052021044732/Gen031/M00000196_I_DFT.out	Energy: -781418.9146228
Ru        -0.17169        0.04550       -0.04598
C         -0.49937       -0.74930        1.55400
C          1.76071       -0.11743       -0.25510
Cl        -0.91217       -1.72967       -1.50601
Cl        -0.29951        2.35880        0.63596
H          0.20716       -1.22183        2.24058
H         -1.56751       -0.75008        1.86094
N          2.41460        0.36307       -1.38975
N          2.73566       -0.65555        0.57533
C          3.89029        0.16287       -1.34790
C          1.82965        1.00068       -2.56191
C          4.11210       -0.54683        0.00481
H          4.21551       -0.44637       -2.20322
H          4.40696        1.13162       -1.40635
H          4.75584        0.03013        0.68445
H          4.55171       -1.54839       -0.10967
C          1.74518        2.42361       -2.60729
C          1.48154        0.19372       -3.68511
C          2.31267        3.28538       -1.48843
C          1.14598        3.03475       -3.74631
H          2.64140        2.68644       -0.63710
H          1.56628        3.98946       -1.10201
H          3.17350        3.87269       -1.85044
C          1.00903        4.55260       -3.81676
C          0.66286        2.22877       -4.81806
H          1.72507        5.06300       -3.16498
H          0.00194        4.87810       -3.50317
H          1.17086        4.92995       -4.83521
C         -0.08256        2.87772       -5.98067
C          0.88576        0.82093       -4.81663
H         -0.62235        3.77741       -5.66317
H         -0.82248        2.19596       -6.41630
H          0.60244        3.17798       -6.79327
C          0.47142       -0.01495       -6.02357
H          1.02848       -0.95530       -6.08548
H          0.63461        0.52151       -6.96748
H         -0.59934       -0.27939       -5.97746
C          1.76584       -1.30142       -3.70347
H          2.11651       -1.66315       -2.73501
H          2.53257       -1.54158       -4.45950
H          0.86615       -1.87996       -3.94399
C          2.62493       -1.29532        1.87209
C          2.48582       -2.71276        1.92979
C          2.77382       -0.50177        3.04645
C          2.33466       -3.53388        0.65582
C          2.46426       -3.34572        3.20677
H          3.18631       -4.21886        0.51319
H          2.25628       -2.90076       -0.22994
H          1.42383       -4.14924        0.68375
C          2.32372       -4.86153        3.31144
C          2.57102       -2.56267        4.39431
H          2.51419       -5.36343        2.35849
H          1.30850       -5.15264        3.63148
H          3.02490       -5.28148        4.04636
C          2.49799       -3.24106        5.75896
C          2.75040       -1.14977        4.31580
H          1.88362       -4.14826        5.73293
H          2.06687       -2.58091        6.52055
H          3.49944       -3.53802        6.11742
C          2.91283       -0.33706        5.59687
H          1.94914       -0.20882        6.11918
H          3.30830        0.66474        5.40605
H          3.59751       -0.82861        6.30221
C          2.92801        1.01039        2.95155
H          2.16963        1.52711        3.55695
H          2.80573        1.36873        1.92785
H          3.91527        1.33902        3.31539
