75
/cluster/projects/nn2506k/marcof/RuC_BondLength/evolutionary_desing/RUN28052021044948/Gen002/M00000048_I_DFT.out	Energy: -878509.6887443
Ru        -0.05451        0.08197        0.07009
C         -0.26972       -0.50167        1.77659
C          1.88203        0.05766       -0.20549
Cl        -0.69424       -1.92574       -1.11384
Cl        -0.42799        2.43543        0.49205
H          0.49254       -0.75253        2.51753
H         -1.32820       -0.58548        2.10501
N          2.45842        0.61211       -1.34920
N          2.91609       -0.44009        0.57807
C          3.96218        0.59443       -1.32655
C          1.76430        1.36052       -2.39546
C          4.63055       -0.04643       -2.58023
C          4.28234       -0.11800        0.02338
H          4.30405        1.63787       -1.28575
C          4.72698       -1.55613       -2.52198
H          4.10730        0.29352       -3.48234
H          5.64928        0.38026       -2.64525
C          5.01744       -2.16789       -1.34949
H          4.56487       -2.13131       -3.43569
C          5.24083       -1.33989       -0.10150
H          5.09828       -3.25467       -1.28299
H          5.17452       -1.95020        0.80765
H          6.26831       -0.92983       -0.11436
H          4.75702        0.59195        0.71676
C          1.74967        2.78650       -2.32196
C          1.20454        0.66989       -3.51278
C          2.41195        3.53798       -1.17587
C          1.08738        3.52263       -3.34356
H          2.65406        2.88001       -0.34005
H          1.74447        4.30998       -0.77612
H          3.33829        4.03878       -1.50704
C          1.07072        5.04666       -3.28360
C          0.41844        2.83985       -4.40029
H          1.99063        5.44739       -2.84102
H          0.23121        5.41446       -2.66809
H          0.96967        5.49644       -4.27806
C         -0.39460        3.63546       -5.41771
C          0.50948        1.42234       -4.50687
H         -0.92718        4.46805       -4.94020
H         -1.14833        3.01624       -5.91456
H          0.24481        4.06803       -6.20717
C         -0.13911        0.71234       -5.69237
H          0.21044       -0.31732       -5.80444
H          0.06680        1.23151       -6.63929
H         -1.23563        0.66648       -5.57795
C          1.36357       -0.83391       -3.67897
H          0.39328       -1.33708       -3.76284
H          1.87820       -1.28618       -2.83201
H          1.93875       -1.06327       -4.59118
C          2.85134       -1.02313        1.90818
C          2.65050       -2.42674        2.06005
C          3.07151       -0.17294        3.03381
C          2.38348       -3.31306        0.85227
C          2.66748       -2.98518        3.37414
H          2.40066       -2.74789       -0.07881
H          1.39233       -3.78397        0.91845
H          3.12705       -4.12120        0.77300
C          2.43328       -4.48013        3.57652
C          2.90485       -2.14999        4.50516
H          3.23106       -4.93591        4.18221
H          2.38914       -5.02777        2.63211
H          1.48194       -4.66987        4.10081
C          2.91495       -2.73830        5.91300
C          3.12833       -0.75198        4.33353
H          2.40625       -2.07888        6.62900
H          3.94535       -2.87981        6.28324
H          2.41862       -3.71207        5.96174
C          3.40990        0.12480        5.55001
H          3.93537        1.04723        5.28146
H          4.03085       -0.39779        6.28911
H          2.47814        0.42059        6.06328
C          3.19165        1.33720        2.86897
H          2.55228        1.86218        3.59210
H          2.87381        1.66444        1.87727
H          4.22297        1.69108        3.03521
